Using: /usr/synopsys/hspice/hspice_vT-2022.06-SP2/hspice/linux64/hspice debug/empty.cir
 ****** PrimeSim HSPICE -- T-2022.06-SP2 linux64 (Nov 22 2022 7905465) ******
  Copyright (c) 1986 - 2023 by Synopsys, Inc. All Rights Reserved.
  This software and the associated documentation are proprietary
  to Synopsys, Inc. This software may only be used in accordance
  with the terms and conditions of a written license agreement with
  Synopsys, Inc. All other use, reproduction, or distribution of
  this software is strictly prohibited.
  Input File: debug/empty.cir                                                   
  Command line options: /usr/synopsys/hspice/hspice_vT-2022.06-SP2/hspice/linux64/hspice debug/empty.cir
  Start time: Sun Jul 16 21:28:01 2023
 lic:  
 lic: FLEXlm: SDK_12.11.3 
 lic: USER:   bborges              HOSTNAME: aorus 
 lic: HOSTID: d76153d              PID:      232993 
 lic: Using FLEXlm license file: 
 lic: 27020@localhost 
 lic: Checkout 1 hspice 
 lic: License/Maintenance for hspice will expire on 30-jun-2024/2022.06 
 lic: 1(in_use)/50(total) FLOATING license(s) on SERVER 27020@localhost 
 lic:   
           job total runtime         0.00 seconds


 lic: Release hspice token(s) 
 lic: total license checkout elapse time:        0.02(s)
