*circuito xor

****** dispositivos logicos ******

.include dis/logica.txt

****** SETs ******

.include SETs.txt

****** HSPICE ******

.option measform = 3
.option post = 2

****** Fontes de Tensão Geral ******

.include vdd.txt

****** Fontes de Sinal ******

.include fontes.txt

****** Circuito ******

Xand1 vdd gnd b c i1 AND
Xand2 vdd gnd a i1 i2 AND
Xand3 vdd gnd i1 d i3 AND
Xand4 vdd gnd i2 i3 g1 AND

****** Controle ******

.tran 0.01n 4n

************
.end

