
Note: No compatibility mode selected!


Circuit: multiplexador

Doing analysis at TEMP = 27.000000 and TNOM = 27.000000

Note: Starting dynamic gmin stepping
Trying gmin =   1.0000E-03 Note: One successful gmin step
Trying gmin =   1.0000E-04 Note: One successful gmin step
Trying gmin =   1.0000E-05 Note: One successful gmin step
Trying gmin =   1.0000E-06 Note: One successful gmin step
Trying gmin =   1.0000E-07 Note: One successful gmin step
Trying gmin =   1.0000E-08 Note: One successful gmin step
Trying gmin =   1.0000E-09 Note: One successful gmin step
Trying gmin =   1.0000E-10 Note: One successful gmin step
Trying gmin =   1.0000E-11 Note: One successful gmin step
Trying gmin =   1.0000E-12 Note: One successful gmin step
Trying gmin =   1.0000E-12 Note: One successful gmin step
Note: Dynamic gmin stepping completed

Initial Transient Solution
--------------------------

Node                                   Voltage
----                                   -------
select                                     0.7
a                                          0.7
b                                          0.7
out                                    0.69999
vdd                                        0.7
vcc                                        0.7
clk                                          0
vss                                          0
na                                 2.77985e-06
nb                                 2.69403e-06
nsel                               2.69403e-06
n4                                     0.69999
n5                                    0.699995
n6                                    0.501997
ina                                     0.3186
a2                                    0.447042
inb                                   0.318602
b2                                    0.447035
insel                                 0.318592
sel2                                  0.447078
sc1                                 2.7188e-06
sc2                                   0.699993
vvss#branch                                  0
vclk#branch                                  0
vvcc#branch                                  0
vvdd#branch                       -2.06277e-06
vb#branch                          -1.1246e-05
va#branch                         -1.12468e-05
vselect#branch                    -1.12511e-05


No. of Data Rows : 426

  Measurements for Transient Analysis

minout              =  6.999899e-01 at=  3.552000e-09
maxout              =  6.999899e-01 at=  3.032000e-09
minnod              =  6.999899e-01 at=  3.552000e-09
maxnod              =  6.999899e-01 at=  3.032000e-09


Total analysis time (seconds) = 0.061

Total elapsed time (seconds) = 0.069 

Total DRAM available = 7819.676 MB.
DRAM currently available =  296.844 MB.
Maximum ngspice program size =   26.367 MB.
Current ngspice program size =   13.340 MB.

Shared ngspice pages =    9.375 MB.
Text (code) pages =    5.387 MB.
Stack = 0 bytes.
Library pages =   10.227 MB.

