Using: /home/synopsys_tools/hspice/hspice_vT-2022.06-SP2/hspice/linux64/hspice xorv8.cir
 ****** PrimeSim HSPICE -- T-2022.06-SP2 linux64 (Nov 22 2022 7905465) ******
  Copyright (c) 1986 - 2023 by Synopsys, Inc. All Rights Reserved.
  This software and the associated documentation are proprietary
  to Synopsys, Inc. This software may only be used in accordance
  with the terms and conditions of a written license agreement with
  Synopsys, Inc. All other use, reproduction, or distribution of
  this software is strictly prohibited.
  Input File: xorv8.cir                                                         
  Command line options: /home/synopsys_tools/hspice/hspice_vT-2022.06-SP2/hspice/linux64/hspice xorv8.cir
  Start time: Mon Aug 28 20:12:15 2023
 lic:  
 lic: FLEXlm: SDK_12.11.3 
 lic: USER:   bborges              HOSTNAME: aorus 
 lic: HOSTID: d76153d              PID:      1395950 
 lic: Using FLEXlm license file: 
 lic: 27020@localhost 
 lic: Checkout 1 hspice 
 lic: License/Maintenance for hspice will expire on 30-jun-2024/2023.03 
 lic: 1(in_use)/50(total) FLOATING license(s) on SERVER 27020@localhost 
 lic:   
  **info** Monte Carlo simulation is detected, increase number of measure digits to 7 for Monte Carlo post processing.
  **info** Starting with the 2021.09 relaease, the Monte Carlo data mining functionality has been merged with AVA based-post processing.
1****** PrimeSim HSPICE -- T-2022.06-SP2 linux64 (Nov 22 2022 7905465) ******
 ******  
 xor v8

 ****** mos   model parameters tnom=  25.000 temp=  25.000 ******
 Model file: ../dis/7nm_FF.pm
 Model line:           99
 Model Name: nmos_rvt 
 BSIM-MG BULK Model(Level72)
   VERSION =    107  
   L = 2.1e-08 
   D =  4e-08 
   TFIN =  7e-09 
   FPITCH = 2.7e-08 
   NF = 1 
   NFIN =      1 
   NGCON = 1 
   ASEO =      0 
   ADEO =      0 
   PSEO =      0 
   PDEO =      0 
   ASEJ =      0 
   ADEJ =      0 
   PSEJ =      0 
   PDEJ =      0 
   CGSP =      0 
   CGDP =      0 
   CDSP =      0 
   NRS =      0 
   NRD =      0 
   LRSD = 2.1e-08 
   XL = -5e-10 
   DTEMP =      0 
   DELVTRAND =      0 
   U0MULT =      1 
   IDS0MULT =      1 
   DEVTYPE = 1 
   BULKMOD = 1 
   COREMOD = 0 
   GEOMOD = 1 
   RDSMOD = 0 
   ASYMMOD = 0 
   IGCMOD = 1 
   IGBMOD = 0 
   GIDLMOD = 1 
   IIMOD = 0 
   NQSMOD = 0 
   SHMOD = 0 
   RGATEMOD = 0 
   RGEOMOD = 0 
   CGEOMOD = 0 
   CAPMOD = 0 
   LINT = -2e-09 
   LL =      0 
   LLN =      1 
   DLC =      0 
   DLCACC =      0 
   DLBIN =      0 
   LLC =      0 
   EOT = 7.5e-10 
   TOXP = 2.1e-09 
   EOTBOX = 1.4e-07 
   HFIN = 3.4e-08 
   FECH =      1 
   DELTAW =      0 
   FECHCV =      1 
   DELTAWCV =      0 
   NBODY =  1e+22 
   NSD =  2e+26 
   PHIG =  4.372 
   EPSROX =    3.9 
   EPSRSUB =   11.9 
   EASUB =   4.05 
   NI0SUB = 1.1e+16 
   BG0SUB =   1.17 
   NC0SUB = 2.86e+25 
   NGATE =      0 
   CIT =      0 
   CDSC =   0.01 
   CDSCD =   0.01 
   CDSCDR =   0.01 
   DVT0 =   0.05 
   DVT1 =   0.48 
   PHIN =   0.05 
   ETA0 =  0.062 
   ETA0R =  0.062 
   DSUB =  0.338 
   K1RSCE =      0 
   LPE0 =      0 
   DVTSHIFT =      0 
   PHIBE =    0.7 
   K0 =      0 
   K0SI =      1 
   K1 =      0 
   K1SAT =      0 
   QMFACTOR =    2.5 
   QMTCENIV =      0 
   QMTCENCV =      0 
   QMTCENCVA =      0 
   AQMTCEN =      0 
   BQMTCEN = 1.2e-08 
   ETAQM =   0.54 
   QM0 =  0.001 
   PQM =   0.66 
   QM0ACC =  0.001 
   PQMACC =   0.66 
   VSAT =  7e+04 
   AVSAT =      0 
   BVSAT =  1e-07 
   VSAT1 =  7e+04 
   VSAT1R =  7e+04 
   AVSAT1 =      0 
   BVSAT1 =  1e-07 
   DELTAVSAT =   0.28 
   PSAT =      2 
   APSAT =      0 
   BPSAT =      1 
   KSATIV =      2 
   VSATCV =  7e+04 
   AVSATCV =      0 
   BVSATCV =  1e-07 
   MEXP =      4 
   AMEXP =      0 
   BMEXP =      1 
   PTWG =     30 
   PTWGR =     30 
   APTWG =      0 
   BPTWG =  1e-07 
   AT =  0.001 
   TMEXP =      0 
   PTWGT =  0.004 
   U0 = 0.0262 
   ETAMOB =      2 
   UP =      0 
   LPA =      1 
   UA =   0.55 
   AUA =      0 
   BUA =  1e-07 
   UC =      0 
   EU =    1.2 
   AEU =      0 
   BEU =  1e-07 
   UD =      0 
   AUD =      0 
   BUD =  5e-08 
   UCS =      1 
   UTE =   -0.7 
   UTL =      0 
   EMOBT =      0 
   UA1 = 0.001032 
   UC1 = 5.6e-11 
   UD1 =      0 
   UCSTE = -0.004775 
   RDSWMIN =      0 
   RDSW =    190 
   ARDSW =      0 
   BRDSW =  1e-07 
   RSWMIN =      0 
   RSW =     50 
   ARSW =      0 
   BRSW =  1e-07 
   RDWMIN =      0 
   RDW =     50 
   ARDW =      0 
   BRDW =  1e-07 
   RSDR =      0 
   RSDRR =      0 
   RDDR =      0 
   RDDRR =      0 
   PRSDR =      1 
   PRDDR =      1 
   PRWGS =      0 
   PRWGD =      0 
   WR =      1 
   PRT =      0 
   TRSDR =      0 
   TRDDR =      0 
   PDIBL1 =      0 
   PDIBL1R =      0 
   PDIBL2 =  0.002 
   DROUT =      1 
   PVAG =      0 
   PCLM =   0.05 
   APCLM =      0 
   BPCLM =  1e-07 
   PCLMG =      0 
   PCLMCV =   0.05 
   A1 =      0 
   A2 =      0 
   RGEXT =      0 
   RGFIN =  0.001 
   RSHS =      0 
   RSHD =      0 
   HEPI =  1e-08 
   TSILI =  1e-08 
   RHOC =  1e-12 
   RHORSD =      1 
   CRATIO =    0.5 
   DELTAPRSD =      0 
   SDTERM = 0 
   LSP = 4.1e-09 
   EPSRSP =    3.9 
   TGATE =  3e-08 
   TMASK =  3e-08 
   ASILIEND =      0 
   ARSDEND =      0 
   PRSDEND =      0 
   NSDE =  2e+25 
   RGEOA =      1 
   RGEOB =      0 
   RGEOC =      0 
   RGEOD =      0 
   RGEOE =      0 
   CGEOA =      1 
   CGEOB =      0 
   CGEOC =      0 
   CGEOD =      0 
   CGEOE =      1 
   AIGBINV = 0.0111 
   BIGBINV = 0.000949 
   CIGBINV =  0.006 
   EIGBINV =    1.1 
   NIGBINV =      3 
   AIGBACC = 0.0136 
   BIGBACC = 0.00171 
   CIGBACC =  0.075 
   NIGBACC =      1 
   AIGC =  0.014 
   BIGC =  0.005 
   CIGC =   0.25 
   PIGCD =      1 
   DLCIGS =  1e-09 
   AIGS = 0.0115 
   BIGS = 0.00332 
   CIGS =   0.35 
   DLCIGD =  1e-09 
   AIGD = 0.0115 
   BIGD = 0.00332 
   CIGD =   0.35 
   TOXREF = 1.2e-09 
   NTOX =      1 
   POXEDGE =    1.1 
   AGISL =  1e-12 
   BGISL =  1e+07 
   CGISL =    0.5 
   EGISL =   0.35 
   PGISL =      1 
   AGIDL =  1e-12 
   BGIDL =  1e+07 
   CGIDL =    0.5 
   EGIDL =   0.35 
   PGIDL =      1 
   ALPHA0 =      0 
   ALPHA1 =      0 
   BETA0 =      0 
   BETAII0 =      0 
   BETAII1 =      0 
   BETAII2 =    0.1 
   ESATII =  1e+07 
   LII =  5e-10 
   SII0 =    0.5 
   SII1 =    0.1 
   SII2 =      0 
   SIID =      0 
   EOTACC =  1e-10 
   DELVFBACC =      0 
   CFS =      0 
   CFD =      0 
   COVS =      0 
   COVD =      0 
   CGSO = 1.6e-10 
   CGDO = 1.6e-10 
   CGSL =      0 
   CGDL =      0 
   CKAPPAS =    0.6 
   CKAPPAD =    0.6 
   CGBO =      0 
   CGBN =      0 
   CGBL =      0 
   CKAPPAB =    0.6 
   CSDESW =      0 
   CJS = 0.0005 
   CJD = 0.0005 
   CJSWS =  5e-10 
   CJSWD =  5e-10 
   CJSWGS =      0 
   CJSWGD =      0 
   PBS =      1 
   PBD =      1 
   PBSWS =      1 
   PBSWD =      1 
   PBSWGS =      1 
   PBSWGD =      1 
   MJS =    0.5 
   MJD =    0.5 
   MJSWS =   0.33 
   MJSWD =   0.33 
   MJSWGS =   0.33 
   MJSWGD =   0.33 
   SJS =      0 
   SJD =      0 
   SJSWS =      0 
   SJSWD =      0 
   SJSWGS =      0 
   SJSWGD =      0 
   MJS2 =  0.125 
   MJD2 =  0.125 
   MJSWS2 =  0.083 
   MJSWD2 =  0.083 
   MJSWGS2 =  0.083 
   MJSWGD2 =  0.083 
   JSS = 0.0001 
   JSD = 0.0001 
   JSWS =      0 
   JSWD =      0 
   JSWGS =      0 
   JSWGD =      0 
   NJS =      1 
   NJD =      1 
   IJTHSFWD =    0.1 
   IJTHDFWD =    0.1 
   IJTHSREV =    0.1 
   IJTHDREV =    0.1 
   BVS =     10 
   BVD =     10 
   XJBVS =      1 
   XJBVD =      1 
   JTSS =      0 
   JTSD =      0 
   JTSSWS =      0 
   JTSSWD =      0 
   JTSSWGS =      0 
   JTSSWGD =      0 
   JTWEFF =      0 
   NJTS =     20 
   NJTSD =     20 
   NJTSSW =     20 
   NJTSSWD =     20 
   NJTSSWG =     20 
   NJTSSWGD =     20 
   VTSS =     10 
   VTSD =     10 
   VTSSWS =     10 
   VTSSWD =     10 
   VTSSWGS =     10 
   VTSSWGD =     10 
   LINTIGEN =      0 
   NTGEN =      1 
   AIGEN =      0 
   BIGEN =      0 
   XRCRG1 =     12 
   XRCRG2 =      1 
   NSEG = 5 
   EF =      1 
   EM = 4.1e+07 
   NOIA = 6.25e+39 
   NOIB = 3.125e+24 
   NOIC = 8.75e+07 
   NTNOI =      1 
   TNOM =     25 
   TBGASUB = 0.000473 
   TBGBSUB =    636 
   KT1 =      0 
   KT1L =      0 
   TSS =      0 
   IIT =   -0.5 
   TII =      0 
   TGIDL = -0.007 
   IGT =    2.5 
   TCJ =      0 
   TCJSW =      0 
   TCJSWG =      0 
   TPB =      0 
   TPBSW =      0 
   TPBSWG =      0 
   XTIS =      3 
   XTID =      3 
   XTSS =   0.02 
   XTSD =   0.02 
   XTSSWS =   0.02 
   XTSSWD =   0.02 
   XTSSWGS =   0.02 
   XTSSWGD =   0.02 
   TNJTS =      0 
   TNJTSD =      0 
   TNJTSSW =      0 
   TNJTSSWD =      0 
   TNJTSSWG =      0 
   TNJTSSWGD =      0 
   RTH0 =  0.225 
   CTH0 = 1.243e-06 
   WTH0 = 2.6e-07 
   LNBODY =      0 
   NNBODY =      0 
   PNBODY =      0 
   LPHIG =      0 
   NPHIG =      0 
   PPHIG =      0 
   LNGATE =      0 
   NNGATE =      0 
   PNGATE =      0 
   LCIT =      0 
   NCIT =      0 
   PCIT =      0 
   LCDSC =      0 
   NCDSC =      0 
   PCDSC =      0 
   LCDSCD =  5e-05 
   NCDSCD =      0 
   PCDSCD =      0 
   LCDSCDR =  5e-05 
   NCDSCDR =      0 
   PCDSCDR =      0 
   LDVT0 =      0 
   NDVT0 =      0 
   PDVT0 =      0 
   LDVT1 =      0 
   NDVT1 =      0 
   PDVT1 =      0 
   LPHIN =      0 
   NPHIN =      0 
   PPHIN =      0 
   LETA0 =      0 
   NETA0 =      0 
   PETA0 =      0 
   LETA0R =      0 
   NETA0R =      0 
   PETA0R =      0 
   LDSUB =      0 
   NDSUB =      0 
   PDSUB =      0 
   LK1RSCE =      0 
   NK1RSCE =      0 
   PK1RSCE =      0 
   LLPE0 =      0 
   NLPE0 =      0 
   PLPE0 =      0 
   LDVTSHIFT =      0 
   NDVTSHIFT =      0 
   PDVTSHIFT =      0 
   LPHIBE =      0 
   NPHIBE =      0 
   PPHIBE =      0 
   LK0 =      0 
   NK0 =      0 
   PK0 =      0 
   LK0SI =      0 
   NK0SI =      0 
   PK0SI =      0 
   LK1 =      0 
   NK1 =      0 
   PK1 =      0 
   LK1SAT =      0 
   NK1SAT =      0 
   PK1SAT =      0 
   LDVTB =      0 
   NDVTB =      0 
   PDVTB =      0 
   LLPEB =      0 
   NLPEB =      0 
   PLPEB =      0 
   LQMFACTOR =      0 
   NQMFACTOR =      0 
   PQMFACTOR =      0 
   LQMTCENIV =      0 
   NQMTCENIV =      0 
   PQMTCENIV =      0 
   LQMTCENCV =      0 
   NQMTCENCV =      0 
   PQMTCENCV =      0 
   LQMTCENCVA =      0 
   NQMTCENCVA =      0 
   PQMTCENCVA =      0 
   LVSAT =      0 
   NVSAT =      0 
   PVSAT =      0 
   LVSAT1 =      0 
   NVSAT1 =      0 
   PVSAT1 =      0 
   LVSAT1R =      0 
   NVSAT1R =      0 
   PVSAT1R =      0 
   LPSAT =      0 
   NPSAT =      0 
   PPSAT =      0 
   LDELTAVSAT =      0 
   NDELTAVSAT =      0 
   PDELTAVSAT =      0 
   LKSATIV =      0 
   NKSATIV =      0 
   PKSATIV =      0 
   LVSATCV =      0 
   NVSATCV =      0 
   PVSATCV =      0 
   LMEXP =      0 
   NMEXP =      0 
   PMEXP =      0 
   LPTWG =      0 
   NPTWG =      0 
   PPTWG =      0 
   LPTWGR =      0 
   NPTWGR =      0 
   PPTWGR =      0 
   LU0 =      0 
   NU0 =      0 
   PU0 =      0 
   LETAMOB =      0 
   NETAMOB =      0 
   PETAMOB =      0 
   LUP =      0 
   NUP =      0 
   PUP =      0 
   LUA =      0 
   NUA =      0 
   PUA =      0 
   LUC =      0 
   NUC =      0 
   PUC =      0 
   LEU =      0 
   NEU =      0 
   PEU =      0 
   LUD =      0 
   NUD =      0 
   PUD =      0 
   LUCS =      0 
   NUCS =      0 
   PUCS =      0 
   LPCLM =      0 
   NPCLM =      0 
   PPCLM =      0 
   LPCLMG =      0 
   NPCLMG =      0 
   PPCLMG =      0 
   LPCLMCV =      0 
   NPCLMCV =      0 
   PPCLMCV =      0 
   LA1 =      0 
   NA1 =      0 
   PA1 =      0 
   LA2 =      0 
   NA2 =      0 
   PA2 =      0 
   LRDSW =    0.2 
   NRDSW =      0 
   PRDSW =      0 
   LRSW =      0 
   NRSW =      0 
   PRSW =      0 
   LRDW =      0 
   NRDW =      0 
   PRDW =      0 
   LPRWGS =      0 
   NPRWGS =      0 
   PPRWGS =      0 
   LPRWGD =      0 
   NPRWGD =      0 
   PPRWGD =      0 
   LWR =      0 
   NWR =      0 
   PWR =      0 
   LPDIBL1 =      0 
   NPDIBL1 =      0 
   PPDIBL1 =      0 
   LPDIBL1R =      0 
   NPDIBL1R =      0 
   PPDIBL1R =      0 
   LPDIBL2 =      0 
   NPDIBL2 =      0 
   PPDIBL2 =      0 
   LDROUT =      0 
   NDROUT =      0 
   PDROUT =      0 
   LPVAG =      0 
   NPVAG =      0 
   PPVAG =      0 
   LAIGBINV =      0 
   NAIGBINV =      0 
   PAIGBINV =      0 
   LBIGBINV =      0 
   NBIGBINV =      0 
   PBIGBINV =      0 
   LCIGBINV =      0 
   NCIGBINV =      0 
   PCIGBINV =      0 
   LEIGBINV =      0 
   NEIGBINV =      0 
   PEIGBINV =      0 
   LNIGBINV =      0 
   NNIGBINV =      0 
   PNIGBINV =      0 
   LAIGBACC =      0 
   NAIGBACC =      0 
   PAIGBACC =      0 
   LBIGBACC =      0 
   NBIGBACC =      0 
   PBIGBACC =      0 
   LCIGBACC =      0 
   NCIGBACC =      0 
   PCIGBACC =      0 
   LNIGBACC =      0 
   NNIGBACC =      0 
   PNIGBACC =      0 
   LAIGC =      0 
   NAIGC =      0 
   PAIGC =      0 
   LBIGC =      0 
   NBIGC =      0 
   PBIGC =      0 
   LCIGC =      0 
   NCIGC =      0 
   PCIGC =      0 
   LPIGCD =      0 
   NPIGCD =      0 
   PPIGCD =      0 
   LAIGS =      0 
   NAIGS =      0 
   PAIGS =      0 
   LBIGS =      0 
   NBIGS =      0 
   PBIGS =      0 
   LCIGS =      0 
   NCIGS =      0 
   PCIGS =      0 
   LAIGD =      0 
   NAIGD =      0 
   PAIGD =      0 
   LBIGD =      0 
   NBIGD =      0 
   PBIGD =      0 
   LCIGD =      0 
   NCIGD =      0 
   PCIGD =      0 
   LNTOX =      0 
   NNTOX =      0 
   PNTOX =      0 
   LPOXEDGE =      0 
   NPOXEDGE =      0 
   PPOXEDGE =      0 
   LAGISL =      0 
   NAGISL =      0 
   PAGISL =      0 
   LBGISL =      0 
   NBGISL =      0 
   PBGISL =      0 
   LCGISL =      0 
   NCGISL =      0 
   PCGISL =      0 
   LEGISL =      0 
   NEGISL =      0 
   PEGISL =      0 
   LPGISL =      0 
   NPGISL =      0 
   PPGISL =      0 
   LAGIDL =      0 
   NAGIDL =      0 
   PAGIDL =      0 
   LBGIDL =      0 
   NBGIDL =      0 
   PBGIDL =      0 
   LCGIDL =      0 
   NCGIDL =      0 
   PCGIDL =      0 
   LEGIDL =      0 
   NEGIDL =      0 
   PEGIDL =      0 
   LPGIDL =      0 
   NPGIDL =      0 
   PPGIDL =      0 
   LALPHA0 =      0 
   NALPHA0 =      0 
   PALPHA0 =      0 
   LALPHA1 =      0 
   NALPHA1 =      0 
   PALPHA1 =      0 
   LBETA0 =      0 
   NBETA0 =      0 
   PBETA0 =      0 
   LBETAII0 =      0 
   NBETAII0 =      0 
   PBETAII0 =      0 
   LBETAII1 =      0 
   NBETAII1 =      0 
   PBETAII1 =      0 
   LBETAII2 =      0 
   NBETAII2 =      0 
   PBETAII2 =      0 
   LESATII =      0 
   NESATII =      0 
   PESATII =      0 
   LLII =      0 
   NLII =      0 
   PLII =      0 
   LSII0 =      0 
   NSII0 =      0 
   PSII0 =      0 
   LSII1 =      0 
   NSII1 =      0 
   PSII1 =      0 
   LSII2 =      0 
   NSII2 =      0 
   PSII2 =      0 
   LSIID =      0 
   NSIID =      0 
   PSIID =      0 
   LCFS =      0 
   NCFS =      0 
   PCFS =      0 
   LCFD =      0 
   NCFD =      0 
   PCFD =      0 
   LCOVS =      0 
   NCOVS =      0 
   PCOVS =      0 
   LCOVD =      0 
   NCOVD =      0 
   PCOVD =      0 
   LCGSL =      0 
   NCGSL =      0 
   PCGSL =      0 
   LCGDL =      0 
   NCGDL =      0 
   PCGDL =      0 
   LCKAPPAS =      0 
   NCKAPPAS =      0 
   PCKAPPAS =      0 
   LCKAPPAD =      0 
   NCKAPPAD =      0 
   PCKAPPAD =      0 
   LCGBL =      0 
   NCGBL =      0 
   PCGBL =      0 
   LCKAPPAB =      0 
   NCKAPPAB =      0 
   PCKAPPAB =      0 
   LNTGEN =      0 
   NNTGEN =      0 
   PNTGEN =      0 
   LAIGEN =      0 
   NAIGEN =      0 
   PAIGEN =      0 
   LBIGEN =      0 
   NBIGEN =      0 
   PBIGEN =      0 
   LXRCRG1 =      0 
   NXRCRG1 =      0 
   PXRCRG1 =      0 
   LXRCRG2 =      0 
   NXRCRG2 =      0 
   PXRCRG2 =      0 
   LINTNOI =      0 
   LUTE =      0 
   NUTE =      0 
   PUTE =      0 
   LUTL =      0 
   NUTL =      0 
   PUTL =      0 
   LEMOBT =      0 
   NEMOBT =      0 
   PEMOBT =      0 
   LUA1 =      0 
   NUA1 =      0 
   PUA1 =      0 
   LUC1 =      0 
   NUC1 =      0 
   PUC1 =      0 
   LUD1 =      0 
   NUD1 =      0 
   PUD1 =      0 
   LUCSTE =      0 
   NUCSTE =      0 
   PUCSTE =      0 
   LPTWGT =      0 
   NPTWGT =      0 
   PPTWGT =      0 
   LAT =      0 
   NAT =      0 
   PAT =      0 
   LSTTHETASAT =      0 
   NSTTHETASAT =      0 
   PSTTHETASAT =      0 
   LPRT =      0 
   NPRT =      0 
   PPRT =      0 
   LKT1 =      0 
   NKT1 =      0 
   PKT1 =      0 
   LTSS =      0 
   NTSS =      0 
   PTSS =      0 
   LIIT =      0 
   NIIT =      0 
   PIIT =      0 
   LTII =      0 
   NTII =      0 
   PTII =      0 
   LTGIDL =      0 
   NTGIDL =      0 
   PTGIDL =      0 
   LIGT =      0 
   NIGT =      0 
   PIGT =      0 
   Imin =  1e-15 
   K01 =      0 
   K0SI1 =      0 
   K1SI =      1 
   K1SI1 =      0 
   K11 =      0 
   K1SAT1 =      0 
   DELTAVSATCV =   0.28 
   PSATCV =      2 
   APSATCV =      0 
   BPSATCV =      1 
   A11 =      0 
   A21 =      0 
   AIGBINV1 =      0 
   AIGBACC1 =      0 
   AIGC1 =      0 
   AIGS1 =      0 
   AIGD1 =      0 
   TOXG = 1.8e-09 
   ALPHA01 =      0 
   ALPHA11 =      0 
   ALPHAII0 =      0 
   ALPHAII01 =      0 
   ALPHAII1 =      0 
   ALPHAII11 =      0 
   LK01 =      0 
   NK01 =      0 
   PK01 =      0 
   LK0SI1 =      0 
   NK0SI1 =      0 
   PK0SI1 =      0 
   LK1SI =      0 
   NK1SI =      0 
   PK1SI =      0 
   LK1SI1 =      0 
   NK1SI1 =      0 
   PK1SI1 =      0 
   LK11 =      0 
   NK11 =      0 
   PK11 =      0 
   LK1SAT1 =      0 
   NK1SAT1 =      0 
   PK1SAT1 =      0 
   LPSATCV =      0 
   NPSATCV =      0 
   PPSATCV =      0 
   LDELTAVSATCV =      0 
   NDELTAVSATCV =      0 
   PDELTAVSATCV =      0 
   LA11 =      0 
   NA11 =      0 
   PA11 =      0 
   LA21 =      0 
   NA21 =      0 
   PA21 =      0 
   LAIGBINV1 =      0 
   NAIGBINV1 =      0 
   PAIGBINV1 =      0 
   LAIGBACC1 =      0 
   NAIGBACC1 =      0 
   PAIGBACC1 =      0 
   LAIGC1 =      0 
   NAIGC1 =      0 
   PAIGC1 =      0 
   LAIGS1 =      0 
   NAIGS1 =      0 
   PAIGS1 =      0 
   LAIGD1 =      0 
   NAIGD1 =      0 
   PAIGD1 =      0 
   LALPHAII0 =      0 
   NALPHAII0 =      0 
   PALPHAII0 =      0 
   LALPHAII1 =      0 
   NALPHAII1 =      0 
   PALPHAII1 =      0 
   CGEO1SW = 0 
   NBODYN1 =      0 
   NBODYN2 =  1e+05 
   PHIGL =      0 
   PHIGN1 =      0 
   PHIGN2 =  1e+05 
   CDSCN1 =      0 
   CDSCN2 =  1e+05 
   CDSCDN1 =      0 
   CDSCDN2 =  1e+05 
   CDSCDRN1 =      0 
   CDSCDRN2 =  1e+05 
   DVT1SS =   0.48 
   ETA0N1 =      0 
   ETA0N2 =  1e+05 
   TETA0 =      0 
   TETA0R =      0 
   DVTP0 =      0 
   DVTP1 =      0 
   VSATN1 =      0 
   VSATN2 =  1e+05 
   VSAT1N1 =      0 
   VSAT1N2 =  1e+05 
   VSAT1RN1 =      0 
   VSAT1RN2 =  1e+05 
   MEXPR =      4 
   AMEXPR =      0 
   BMEXPR =      1 
   TMEXPR =      0 
   U0N1 =      0 
   U0N2 =  1e+05 
   CHARGEWF =      0 
   LDVT1SS =      0 
   NDVT1SS =      0 
   PDVT1SS =      0 
   LMEXPR =      0 
   NMEXPR =      0 
   PMEXPR =      0 
   Lmin =      0 m
   Lmax =      1 m
   NFINmin =      0 
   NFINmax =      1 
 Model file: ../dis/7nm_FF.pm
 Model line:          356
 Model Name: pmos_rvt 
 BSIM-MG BULK Model(Level72)
   VERSION =    107  
   L = 2.1e-08 
   D =  4e-08 
   TFIN =  7e-09 
   FPITCH = 2.7e-08 
   NF = 1 
   NFIN =      1 
   NGCON = 1 
   ASEO =      0 
   ADEO =      0 
   PSEO =      0 
   PDEO =      0 
   ASEJ =      0 
   ADEJ =      0 
   PSEJ =      0 
   PDEJ =      0 
   CGSP =      0 
   CGDP =      0 
   CDSP =      0 
   NRS =      0 
   NRD =      0 
   LRSD = 2.1e-08 
   XL = -5e-10 
   DTEMP =      0 
   DELVTRAND =      0 
   U0MULT =      1 
   IDS0MULT =      1 
   DEVTYPE = 0 
   BULKMOD = 1 
   COREMOD = 0 
   GEOMOD = 1 
   RDSMOD = 0 
   ASYMMOD = 0 
   IGCMOD = 1 
   IGBMOD = 0 
   GIDLMOD = 1 
   IIMOD = 0 
   NQSMOD = 0 
   SHMOD = 0 
   RGATEMOD = 0 
   RGEOMOD = 0 
   CGEOMOD = 0 
   CAPMOD = 0 
   LINT = -2.5e-09 
   LL =      0 
   LLN =      1 
   DLC =      0 
   DLCACC =      0 
   DLBIN =      0 
   LLC =      0 
   EOT = 7.5e-10 
   TOXP = 2.1e-09 
   EOTBOX = 1.4e-07 
   HFIN = 3.4e-08 
   FECH =      1 
   DELTAW =      0 
   FECHCV =      1 
   DELTAWCV =      0 
   NBODY =  1e+22 
   NSD =  2e+26 
   PHIG =  4.811 
   EPSROX =    3.9 
   EPSRSUB =   11.9 
   EASUB =   4.05 
   NI0SUB = 1.1e+16 
   BG0SUB =   1.17 
   NC0SUB = 2.86e+25 
   NGATE =      0 
   CIT =      0 
   CDSC = 0.003469 
   CDSCD = 0.001486 
   CDSCDR = 0.001486 
   DVT0 =   0.05 
   DVT1 =    0.4 
   PHIN =   0.05 
   ETA0 =   0.09 
   ETA0R =   0.09 
   DSUB =  0.228 
   K1RSCE =      0 
   LPE0 =      0 
   DVTSHIFT =      0 
   PHIBE =    0.7 
   K0 =      0 
   K0SI =      1 
   K1 =      0 
   K1SAT =      0 
   QMFACTOR =      0 
   QMTCENIV =      0 
   QMTCENCV =      0 
   QMTCENCVA =      0 
   AQMTCEN =      0 
   BQMTCEN = 1.2e-08 
   ETAQM =   0.54 
   QM0 = 2.183e-12 
   PQM =   0.66 
   QM0ACC =  0.001 
   PQMACC =   0.66 
   VSAT =  6e+04 
   AVSAT =      0 
   BVSAT =  1e-07 
   VSAT1 =  6e+04 
   VSAT1R =  6e+04 
   AVSAT1 =      0 
   BVSAT1 =  1e-07 
   DELTAVSAT =   0.22 
   PSAT =      2 
   APSAT =      0 
   BPSAT =      1 
   KSATIV =  1.592 
   VSATCV =  6e+04 
   AVSATCV =      0 
   BVSATCV =  1e-07 
   MEXP =  2.491 
   AMEXP =      0 
   BMEXP =      1 
   PTWG =     25 
   PTWGR =     25 
   APTWG =      0 
   BPTWG =  1e-07 
   AT =  0.001 
   TMEXP =      0 
   PTWGT =  0.004 
   U0 = 0.0219 
   ETAMOB =      4 
   UP =      0 
   LPA =      1 
   UA =  1.133 
   AUA =      0 
   BUA =  1e-07 
   UC =      0 
   EU =   0.05 
   AEU =      0 
   BEU =  1e-07 
   UD = 0.0105 
   AUD =      0 
   BUD =  5e-08 
   UCS = 0.2672 
   UTE =   -1.2 
   UTL =      0 
   EMOBT =      0 
   UA1 = 0.001032 
   UC1 = 5.6e-11 
   UD1 =      0 
   UCSTE = -0.004775 
   RDSWMIN =      0 
   RDSW =    190 
   ARDSW =      0 
   BRDSW =  1e-07 
   RSWMIN =      0 
   RSW =     50 
   ARSW =      0 
   BRSW =  1e-07 
   RDWMIN =      0 
   RDW =     50 
   ARDW =      0 
   BRDW =  1e-07 
   RSDR =      0 
   RSDRR =      0 
   RDDR =      0 
   RDDRR =      0 
   PRSDR =      1 
   PRDDR =      1 
   PRWGS =      0 
   PRWGD =      0 
   WR =      1 
   PRT =      0 
   TRSDR =      0 
   TRDDR =      0 
   PDIBL1 =    800 
   PDIBL1R =    800 
   PDIBL2 = 0.005704 
   DROUT =   4.97 
   PVAG =    200 
   PCLM =   0.01 
   APCLM =      0 
   BPCLM =  1e-07 
   PCLMG =      1 
   PCLMCV =   0.01 
   A1 =      0 
   A2 =      0 
   RGEXT =      0 
   RGFIN =  0.001 
   RSHS =      0 
   RSHD =      0 
   HEPI =  1e-08 
   TSILI =  1e-08 
   RHOC =  1e-12 
   RHORSD =      1 
   CRATIO =    0.5 
   DELTAPRSD =      0 
   SDTERM = 0 
   LSP = 4.1e-09 
   EPSRSP =    3.9 
   TGATE =  3e-08 
   TMASK =  3e-08 
   ASILIEND =      0 
   ARSDEND =      0 
   PRSDEND =      0 
   NSDE =  2e+25 
   RGEOA =      1 
   RGEOB =      0 
   RGEOC =      0 
   RGEOD =      0 
   RGEOE =      0 
   CGEOA =      1 
   CGEOB =      0 
   CGEOC =      0 
   CGEOD =      0 
   CGEOE =      1 
   AIGBINV = 0.0111 
   BIGBINV = 0.000949 
   CIGBINV =  0.006 
   EIGBINV =    1.1 
   NIGBINV =      3 
   AIGBACC = 0.0136 
   BIGBACC = 0.00171 
   CIGBACC =  0.075 
   NIGBACC =      1 
   AIGC =  0.007 
   BIGC = 0.0015 
   CIGC =      1 
   PIGCD =      1 
   DLCIGS =  5e-09 
   AIGS =  0.006 
   BIGS = 0.001944 
   CIGS =      1 
   DLCIGD =  5e-09 
   AIGD =  0.006 
   BIGD = 0.001944 
   CIGD =      1 
   TOXREF = 1.2e-09 
   NTOX =      1 
   POXEDGE =  1.152 
   AGISL =  2e-12 
   BGISL = 1.5e+08 
   CGISL =    0.5 
   EGISL =  1.142 
   PGISL =      1 
   AGIDL =  2e-12 
   BGIDL = 1.5e+08 
   CGIDL =    0.5 
   EGIDL =  1.142 
   PGIDL =      1 
   ALPHA0 =      0 
   ALPHA1 =      0 
   BETA0 =      0 
   BETAII0 =      0 
   BETAII1 =      0 
   BETAII2 =    0.1 
   ESATII =  1e+07 
   LII =  5e-10 
   SII0 =    0.5 
   SII1 =    0.1 
   SII2 =      0 
   SIID =      0 
   EOTACC =  3e-10 
   DELVFBACC =      0 
   CFS =      0 
   CFD =      0 
   COVS =      0 
   COVD =      0 
   CGSO = 1.6e-10 
   CGDO = 1.6e-10 
   CGSL =      0 
   CGDL =      0 
   CKAPPAS =    0.6 
   CKAPPAD =    0.6 
   CGBO =      0 
   CGBN =      0 
   CGBL =      0 
   CKAPPAB =    0.6 
   CSDESW =      0 
   CJS = 0.0005 
   CJD = 0.0005 
   CJSWS =  5e-10 
   CJSWD =  5e-10 
   CJSWGS =      0 
   CJSWGD =      0 
   PBS =      1 
   PBD =      1 
   PBSWS =      1 
   PBSWD =      1 
   PBSWGS =      1 
   PBSWGD =      1 
   MJS =    0.5 
   MJD =    0.5 
   MJSWS =   0.33 
   MJSWD =   0.33 
   MJSWGS =   0.33 
   MJSWGD =   0.33 
   SJS =      0 
   SJD =      0 
   SJSWS =      0 
   SJSWD =      0 
   SJSWGS =      0 
   SJSWGD =      0 
   MJS2 =  0.125 
   MJD2 =  0.125 
   MJSWS2 =  0.083 
   MJSWD2 =  0.083 
   MJSWGS2 =  0.083 
   MJSWGD2 =  0.083 
   JSS = 0.0001 
   JSD = 0.0001 
   JSWS =      0 
   JSWD =      0 
   JSWGS =      0 
   JSWGD =      0 
   NJS =      1 
   NJD =      1 
   IJTHSFWD =    0.1 
   IJTHDFWD =    0.1 
   IJTHSREV =    0.1 
   IJTHDREV =    0.1 
   BVS =     10 
   BVD =     10 
   XJBVS =      1 
   XJBVD =      1 
   JTSS =      0 
   JTSD =      0 
   JTSSWS =      0 
   JTSSWD =      0 
   JTSSWGS =      0 
   JTSSWGD =      0 
   JTWEFF =      0 
   NJTS =     20 
   NJTSD =     20 
   NJTSSW =     20 
   NJTSSWD =     20 
   NJTSSWG =     20 
   NJTSSWGD =     20 
   VTSS =     10 
   VTSD =     10 
   VTSSWS =     10 
   VTSSWD =     10 
   VTSSWGS =     10 
   VTSSWGD =     10 
   LINTIGEN =      0 
   NTGEN =      1 
   AIGEN =      0 
   BIGEN =      0 
   XRCRG1 =     12 
   XRCRG2 =      1 
   NSEG = 5 
   EF =      1 
   EM = 4.1e+07 
   NOIA = 6.25e+39 
   NOIB = 3.125e+24 
   NOIC = 8.75e+07 
   NTNOI =      1 
   TNOM =     25 
   TBGASUB = 0.000473 
   TBGBSUB =    636 
   KT1 =      0 
   KT1L =      0 
   TSS =      0 
   IIT =   -0.5 
   TII =      0 
   TGIDL = -0.007 
   IGT =    2.5 
   TCJ =      0 
   TCJSW =      0 
   TCJSWG =      0 
   TPB =      0 
   TPBSW =      0 
   TPBSWG =      0 
   XTIS =      3 
   XTID =      3 
   XTSS =   0.02 
   XTSD =   0.02 
   XTSSWS =   0.02 
   XTSSWD =   0.02 
   XTSSWGS =   0.02 
   XTSSWGD =   0.02 
   TNJTS =      0 
   TNJTSD =      0 
   TNJTSSW =      0 
   TNJTSSWD =      0 
   TNJTSSWG =      0 
   TNJTSSWGD =      0 
   RTH0 =   0.15 
   CTH0 = 1.243e-06 
   WTH0 = 2.6e-07 
   LNBODY =      0 
   NNBODY =      0 
   PNBODY =      0 
   LPHIG =      0 
   NPHIG =      0 
   PPHIG =      0 
   LNGATE =      0 
   NNGATE =      0 
   PNGATE =      0 
   LCIT =      0 
   NCIT =      0 
   PCIT =      0 
   LCDSC =      0 
   NCDSC =      0 
   PCDSC =      0 
   LCDSCD =      0 
   NCDSCD =      0 
   PCDSCD =      0 
   LCDSCDR =      0 
   NCDSCDR =      0 
   PCDSCDR =      0 
   LDVT0 =      0 
   NDVT0 =      0 
   PDVT0 =      0 
   LDVT1 =      0 
   NDVT1 =      0 
   PDVT1 =      0 
   LPHIN =      0 
   NPHIN =      0 
   PPHIN =      0 
   LETA0 =      0 
   NETA0 =      0 
   PETA0 =      0 
   LETA0R =      0 
   NETA0R =      0 
   PETA0R =      0 
   LDSUB =      0 
   NDSUB =      0 
   PDSUB =      0 
   LK1RSCE =      0 
   NK1RSCE =      0 
   PK1RSCE =      0 
   LLPE0 =      0 
   NLPE0 =      0 
   PLPE0 =      0 
   LDVTSHIFT =      0 
   NDVTSHIFT =      0 
   PDVTSHIFT =      0 
   LPHIBE =      0 
   NPHIBE =      0 
   PPHIBE =      0 
   LK0 =      0 
   NK0 =      0 
   PK0 =      0 
   LK0SI =      0 
   NK0SI =      0 
   PK0SI =      0 
   LK1 =      0 
   NK1 =      0 
   PK1 =      0 
   LK1SAT =      0 
   NK1SAT =      0 
   PK1SAT =      0 
   LDVTB =      0 
   NDVTB =      0 
   PDVTB =      0 
   LLPEB =      0 
   NLPEB =      0 
   PLPEB =      0 
   LQMFACTOR =      0 
   NQMFACTOR =      0 
   PQMFACTOR =      0 
   LQMTCENIV =      0 
   NQMTCENIV =      0 
   PQMTCENIV =      0 
   LQMTCENCV =      0 
   NQMTCENCV =      0 
   PQMTCENCV =      0 
   LQMTCENCVA =      0 
   NQMTCENCVA =      0 
   PQMTCENCVA =      0 
   LVSAT =   1441 
   NVSAT =      0 
   PVSAT =      0 
   LVSAT1 =   1441 
   NVSAT1 =      0 
   PVSAT1 =      0 
   LVSAT1R =   1441 
   NVSAT1R =      0 
   PVSAT1R =      0 
   LPSAT =      0 
   NPSAT =      0 
   PPSAT =      0 
   LDELTAVSAT =      0 
   NDELTAVSAT =      0 
   PDELTAVSAT =      0 
   LKSATIV =      0 
   NKSATIV =      0 
   PKSATIV =      0 
   LVSATCV =      0 
   NVSATCV =      0 
   PVSATCV =      0 
   LMEXP =      0 
   NMEXP =      0 
   PMEXP =      0 
   LPTWG =      0 
   NPTWG =      0 
   PPTWG =      0 
   LPTWGR =      0 
   NPTWGR =      0 
   PPTWGR =      0 
   LU0 =      0 
   NU0 =      0 
   PU0 =      0 
   LETAMOB =      0 
   NETAMOB =      0 
   PETAMOB =      0 
   LUP =      0 
   NUP =      0 
   PUP =      0 
   LUA =      0 
   NUA =      0 
   PUA =      0 
   LUC =      0 
   NUC =      0 
   PUC =      0 
   LEU =      0 
   NEU =      0 
   PEU =      0 
   LUD =      0 
   NUD =      0 
   PUD =      0 
   LUCS =      0 
   NUCS =      0 
   PUCS =      0 
   LPCLM =      0 
   NPCLM =      0 
   PPCLM =      0 
   LPCLMG =      0 
   NPCLMG =      0 
   PPCLMG =      0 
   LPCLMCV =      0 
   NPCLMCV =      0 
   PPCLMCV =      0 
   LA1 =      0 
   NA1 =      0 
   PA1 =      0 
   LA2 =      0 
   NA2 =      0 
   PA2 =      0 
   LRDSW =    1.3 
   NRDSW =      0 
   PRDSW =      0 
   LRSW =      0 
   NRSW =      0 
   PRSW =      0 
   LRDW =      0 
   NRDW =      0 
   PRDW =      0 
   LPRWGS =      0 
   NPRWGS =      0 
   PPRWGS =      0 
   LPRWGD =      0 
   NPRWGD =      0 
   PPRWGD =      0 
   LWR =      0 
   NWR =      0 
   PWR =      0 
   LPDIBL1 =      0 
   NPDIBL1 =      0 
   PPDIBL1 =      0 
   LPDIBL1R =      0 
   NPDIBL1R =      0 
   PPDIBL1R =      0 
   LPDIBL2 =      0 
   NPDIBL2 =      0 
   PPDIBL2 =      0 
   LDROUT =      0 
   NDROUT =      0 
   PDROUT =      0 
   LPVAG =      0 
   NPVAG =      0 
   PPVAG =      0 
   LAIGBINV =      0 
   NAIGBINV =      0 
   PAIGBINV =      0 
   LBIGBINV =      0 
   NBIGBINV =      0 
   PBIGBINV =      0 
   LCIGBINV =      0 
   NCIGBINV =      0 
   PCIGBINV =      0 
   LEIGBINV =      0 
   NEIGBINV =      0 
   PEIGBINV =      0 
   LNIGBINV =      0 
   NNIGBINV =      0 
   PNIGBINV =      0 
   LAIGBACC =      0 
   NAIGBACC =      0 
   PAIGBACC =      0 
   LBIGBACC =      0 
   NBIGBACC =      0 
   PBIGBACC =      0 
   LCIGBACC =      0 
   NCIGBACC =      0 
   PCIGBACC =      0 
   LNIGBACC =      0 
   NNIGBACC =      0 
   PNIGBACC =      0 
   LAIGC =      0 
   NAIGC =      0 
   PAIGC =      0 
   LBIGC =      0 
   NBIGC =      0 
   PBIGC =      0 
   LCIGC =      0 
   NCIGC =      0 
   PCIGC =      0 
   LPIGCD =      0 
   NPIGCD =      0 
   PPIGCD =      0 
   LAIGS =      0 
   NAIGS =      0 
   PAIGS =      0 
   LBIGS =      0 
   NBIGS =      0 
   PBIGS =      0 
   LCIGS =      0 
   NCIGS =      0 
   PCIGS =      0 
   LAIGD =      0 
   NAIGD =      0 
   PAIGD =      0 
   LBIGD =      0 
   NBIGD =      0 
   PBIGD =      0 
   LCIGD =      0 
   NCIGD =      0 
   PCIGD =      0 
   LNTOX =      0 
   NNTOX =      0 
   PNTOX =      0 
   LPOXEDGE =      0 
   NPOXEDGE =      0 
   PPOXEDGE =      0 
   LAGISL =      0 
   NAGISL =      0 
   PAGISL =      0 
   LBGISL =      0 
   NBGISL =      0 
   PBGISL =      0 
   LCGISL =      0 
   NCGISL =      0 
   PCGISL =      0 
   LEGISL =      0 
   NEGISL =      0 
   PEGISL =      0 
   LPGISL =      0 
   NPGISL =      0 
   PPGISL =      0 
   LAGIDL =      0 
   NAGIDL =      0 
   PAGIDL =      0 
   LBGIDL =      0 
   NBGIDL =      0 
   PBGIDL =      0 
   LCGIDL =      0 
   NCGIDL =      0 
   PCGIDL =      0 
   LEGIDL =      0 
   NEGIDL =      0 
   PEGIDL =      0 
   LPGIDL =      0 
   NPGIDL =      0 
   PPGIDL =      0 
   LALPHA0 =      0 
   NALPHA0 =      0 
   PALPHA0 =      0 
   LALPHA1 =      0 
   NALPHA1 =      0 
   PALPHA1 =      0 
   LBETA0 =      0 
   NBETA0 =      0 
   PBETA0 =      0 
   LBETAII0 =      0 
   NBETAII0 =      0 
   PBETAII0 =      0 
   LBETAII1 =      0 
   NBETAII1 =      0 
   PBETAII1 =      0 
   LBETAII2 =      0 
   NBETAII2 =      0 
   PBETAII2 =      0 
   LESATII =      0 
   NESATII =      0 
   PESATII =      0 
   LLII =      0 
   NLII =      0 
   PLII =      0 
   LSII0 =      0 
   NSII0 =      0 
   PSII0 =      0 
   LSII1 =      0 
   NSII1 =      0 
   PSII1 =      0 
   LSII2 =      0 
   NSII2 =      0 
   PSII2 =      0 
   LSIID =      0 
   NSIID =      0 
   PSIID =      0 
   LCFS =      0 
   NCFS =      0 
   PCFS =      0 
   LCFD =      0 
   NCFD =      0 
   PCFD =      0 
   LCOVS =      0 
   NCOVS =      0 
   PCOVS =      0 
   LCOVD =      0 
   NCOVD =      0 
   PCOVD =      0 
   LCGSL =      0 
   NCGSL =      0 
   PCGSL =      0 
   LCGDL =      0 
   NCGDL =      0 
   PCGDL =      0 
   LCKAPPAS =      0 
   NCKAPPAS =      0 
   PCKAPPAS =      0 
   LCKAPPAD =      0 
   NCKAPPAD =      0 
   PCKAPPAD =      0 
   LCGBL =      0 
   NCGBL =      0 
   PCGBL =      0 
   LCKAPPAB =      0 
   NCKAPPAB =      0 
   PCKAPPAB =      0 
   LNTGEN =      0 
   NNTGEN =      0 
   PNTGEN =      0 
   LAIGEN =      0 
   NAIGEN =      0 
   PAIGEN =      0 
   LBIGEN =      0 
   NBIGEN =      0 
   PBIGEN =      0 
   LXRCRG1 =      0 
   NXRCRG1 =      0 
   PXRCRG1 =      0 
   LXRCRG2 =      0 
   NXRCRG2 =      0 
   PXRCRG2 =      0 
   LINTNOI =      0 
   LUTE =      0 
   NUTE =      0 
   PUTE =      0 
   LUTL =      0 
   NUTL =      0 
   PUTL =      0 
   LEMOBT =      0 
   NEMOBT =      0 
   PEMOBT =      0 
   LUA1 =      0 
   NUA1 =      0 
   PUA1 =      0 
   LUC1 =      0 
   NUC1 =      0 
   PUC1 =      0 
   LUD1 =      0 
   NUD1 =      0 
   PUD1 =      0 
   LUCSTE =      0 
   NUCSTE =      0 
   PUCSTE =      0 
   LPTWGT =      0 
   NPTWGT =      0 
   PPTWGT =      0 
   LAT =      0 
   NAT =      0 
   PAT =      0 
   LSTTHETASAT =      0 
   NSTTHETASAT =      0 
   PSTTHETASAT =      0 
   LPRT =      0 
   NPRT =      0 
   PPRT =      0 
   LKT1 =      0 
   NKT1 =      0 
   PKT1 =      0 
   LTSS =      0 
   NTSS =      0 
   PTSS =      0 
   LIIT =      0 
   NIIT =      0 
   PIIT =      0 
   LTII =      0 
   NTII =      0 
   PTII =      0 
   LTGIDL =      0 
   NTGIDL =      0 
   PTGIDL =      0 
   LIGT =      0 
   NIGT =      0 
   PIGT =      0 
   Imin =  1e-15 
   K01 =      0 
   K0SI1 =      0 
   K1SI =      1 
   K1SI1 =      0 
   K11 =      0 
   K1SAT1 =      0 
   DELTAVSATCV =   0.22 
   PSATCV =      2 
   APSATCV =      0 
   BPSATCV =      1 
   A11 =      0 
   A21 =      0 
   AIGBINV1 =      0 
   AIGBACC1 =      0 
   AIGC1 =      0 
   AIGS1 =      0 
   AIGD1 =      0 
   TOXG = 1.9e-09 
   ALPHA01 =      0 
   ALPHA11 =      0 
   ALPHAII0 =      0 
   ALPHAII01 =      0 
   ALPHAII1 =      0 
   ALPHAII11 =      0 
   LK01 =      0 
   NK01 =      0 
   PK01 =      0 
   LK0SI1 =      0 
   NK0SI1 =      0 
   PK0SI1 =      0 
   LK1SI =      0 
   NK1SI =      0 
   PK1SI =      0 
   LK1SI1 =      0 
   NK1SI1 =      0 
   PK1SI1 =      0 
   LK11 =      0 
   NK11 =      0 
   PK11 =      0 
   LK1SAT1 =      0 
   NK1SAT1 =      0 
   PK1SAT1 =      0 
   LPSATCV =      0 
   NPSATCV =      0 
   PPSATCV =      0 
   LDELTAVSATCV =      0 
   NDELTAVSATCV =      0 
   PDELTAVSATCV =      0 
   LA11 =      0 
   NA11 =      0 
   PA11 =      0 
   LA21 =      0 
   NA21 =      0 
   PA21 =      0 
   LAIGBINV1 =      0 
   NAIGBINV1 =      0 
   PAIGBINV1 =      0 
   LAIGBACC1 =      0 
   NAIGBACC1 =      0 
   PAIGBACC1 =      0 
   LAIGC1 =      0 
   NAIGC1 =      0 
   PAIGC1 =      0 
   LAIGS1 =      0 
   NAIGS1 =      0 
   PAIGS1 =      0 
   LAIGD1 =      0 
   NAIGD1 =      0 
   PAIGD1 =      0 
   LALPHAII0 =      0 
   NALPHAII0 =      0 
   PALPHAII0 =      0 
   LALPHAII1 =      0 
   NALPHAII1 =      0 
   PALPHAII1 =      0 
   CGEO1SW = 0 
   NBODYN1 =      0 
   NBODYN2 =  1e+05 
   PHIGL =      0 
   PHIGN1 =      0 
   PHIGN2 =  1e+05 
   CDSCN1 =      0 
   CDSCN2 =  1e+05 
   CDSCDN1 =      0 
   CDSCDN2 =  1e+05 
   CDSCDRN1 =      0 
   CDSCDRN2 =  1e+05 
   DVT1SS =    0.4 
   ETA0N1 =      0 
   ETA0N2 =  1e+05 
   TETA0 =      0 
   TETA0R =      0 
   DVTP0 =      0 
   DVTP1 =      0 
   VSATN1 =      0 
   VSATN2 =  1e+05 
   VSAT1N1 =      0 
   VSAT1N2 =  1e+05 
   VSAT1RN1 =      0 
   VSAT1RN2 =  1e+05 
   MEXPR =  2.491 
   AMEXPR =      0 
   BMEXPR =      1 
   TMEXPR =      0 
   U0N1 =      0 
   U0N2 =  1e+05 
   CHARGEWF =      0 
   LDVT1SS =      0 
   NDVT1SS =      0 
   PDVT1SS =      0 
   LMEXPR =      0 
   NMEXPR =      0 
   PMEXPR =      0 
   Lmin =      0 m
   Lmax =      1 m
   NFINmin =      0 
   NFINmax =      1 
  **info** (../include/vdd.cir:4) DC voltage reset to initial transient source value in source 0:vclk. new dc=0.0000D+00
*** info *** index=1 is a nominal sample in Monte Carlo.
*** info *** The MCG Random Number Generator and .Option Use_Agauss_Format = Yes are set as defaults starting with PrimeSim HSPICE L-2016.06 to address the needs of advanced technology nodes with large samples and/or large circuits, particularly for distributed processing.
*** Should you want backward compatibility, please use the following options:
For traditional Gaussian style variations, use .Option Random_Generator = 3LC;
For Variation Block style variations, use .Option Random_Generator = MOA.
  
  **warning**  the following singular supplies have a terminal that is not connected to any other element
 supply                 node1                  node2
 vvcc                0:vcc              defined in subckt 0            0:0                defined in subckt 0
 vclk                0:clk              defined in subckt 0            0:0                defined in subckt 0
  
      

MONTE CARLO DEFINITIONS


Option sampling_method was set, variation block and agauss format variation are in effect.

Random number generator is MCG            , and seed =      1, stream =   1
 **info** set option symb=1 internally to help for convergence.
 *****************************************************************
 ******  option summary
 ******
 runlvl  = 3         bypass  = 2.0000    

   *** monte carlo  index =            1 ***

 ******
 xor v8

 ****** transient analysis tnom=  25.000 temp=  25.000 ******
 minout= 125.1831n    at=   1.1205n
             from=   1.0000n    to=   3.8000n
 maxout= 125.1831n    at=   1.3205n
             from=   1.0000n    to=   3.8000n

          ***** job concluded

   *** monte carlo  index =            2 ***

 minout=   1.0430u    at=   1.1205n
             from=   1.0000n    to=   3.8000n
 maxout=   1.0430u    at=   1.3205n
             from=   1.0000n    to=   3.8000n

          ***** job concluded

   *** monte carlo  index =            3 ***

 minout= 253.0515n    at=   1.3205n
             from=   1.0000n    to=   3.8000n
 maxout= 253.0515n    at=   1.1205n
             from=   1.0000n    to=   3.8000n

          ***** job concluded

   *** monte carlo  index =            4 ***

 minout=   2.9223n    at=   1.1205n
             from=   1.0000n    to=   3.8000n
 maxout=   2.9223n    at=   1.3205n
             from=   1.0000n    to=   3.8000n

          ***** job concluded

   *** monte carlo  index =            5 ***

 minout=  74.0890n    at=   1.1205n
             from=   1.0000n    to=   3.8000n
 maxout=  74.0890n    at=   1.3205n
             from=   1.0000n    to=   3.8000n

          ***** job concluded

   *** monte carlo  index =            6 ***

 minout=  14.7356u    at=   3.5205n
             from=   1.0000n    to=   3.8000n
 maxout=  14.7356u    at=   1.3205n
             from=   1.0000n    to=   3.8000n

          ***** job concluded

   *** monte carlo  index =            7 ***

 minout=  23.3838n    at=   1.3205n
             from=   1.0000n    to=   3.8000n
 maxout=  23.3838n    at=   1.1205n
             from=   1.0000n    to=   3.8000n

          ***** job concluded

   *** monte carlo  index =            8 ***

 minout= 460.2851n    at=   1.1205n
             from=   1.0000n    to=   3.8000n
 maxout= 460.2851n    at=   1.3205n
             from=   1.0000n    to=   3.8000n

          ***** job concluded

   *** monte carlo  index =            9 ***

 minout=  54.4128n    at=   1.1205n
             from=   1.0000n    to=   3.8000n
 maxout=  54.4128n    at=   1.3205n
             from=   1.0000n    to=   3.8000n

          ***** job concluded

   *** monte carlo  index =           10 ***

 minout= 492.1451n    at=   1.1205n
             from=   1.0000n    to=   3.8000n
 maxout= 492.1451n    at=   1.3205n
             from=   1.0000n    to=   3.8000n

          ***** job concluded

   *** monte carlo  index =           11 ***

 minout=  30.2943n    at=   1.3205n
             from=   1.0000n    to=   3.8000n
 maxout=  30.2943n    at=   1.1205n
             from=   1.0000n    to=   3.8000n

          ***** job concluded

   *** monte carlo  index =           12 ***

 minout=  58.9403n    at=   1.1205n
             from=   1.0000n    to=   3.8000n
 maxout=  58.9403n    at=   1.3205n
             from=   1.0000n    to=   3.8000n

          ***** job concluded

   *** monte carlo  index =           13 ***

 minout=  14.6805n    at=   1.1205n
             from=   1.0000n    to=   3.8000n
 maxout=  14.6805n    at=   1.3205n
             from=   1.0000n    to=   3.8000n

          ***** job concluded

   *** monte carlo  index =           14 ***

 minout=   3.3961u    at=   1.3205n
             from=   1.0000n    to=   3.8000n
 maxout=   3.3961u    at=   1.1205n
             from=   1.0000n    to=   3.8000n

          ***** job concluded

   *** monte carlo  index =           15 ***

 minout=  26.0014n    at=   1.1205n
             from=   1.0000n    to=   3.8000n
 maxout=  26.0014n    at=   1.3205n
             from=   1.0000n    to=   3.8000n

          ***** job concluded

   *** monte carlo  index =           16 ***

 minout=  46.5008n    at=   1.3205n
             from=   1.0000n    to=   3.8000n
 maxout=  46.5008n    at=   1.1205n
             from=   1.0000n    to=   3.8000n

          ***** job concluded

   *** monte carlo  index =           17 ***

 minout=  18.8739u    at=   1.1205n
             from=   1.0000n    to=   3.8000n
 maxout=  18.8739u    at=   1.3205n
             from=   1.0000n    to=   3.8000n

          ***** job concluded

   *** monte carlo  index =           18 ***

 minout=  16.4248n    at=   1.1205n
             from=   1.0000n    to=   3.8000n
 maxout=  16.4248n    at=   1.3205n
             from=   1.0000n    to=   3.8000n

          ***** job concluded

   *** monte carlo  index =           19 ***

 minout=   4.1727u    at=   1.1205n
             from=   1.0000n    to=   3.8000n
 maxout=   4.1727u    at=   1.3205n
             from=   1.0000n    to=   3.8000n

          ***** job concluded

   *** monte carlo  index =           20 ***

 minout=  85.4535u    at=   2.7205n
             from=   1.0000n    to=   3.8000n
 maxout=  85.4535u    at=   2.9205n
             from=   1.0000n    to=   3.8000n

          ***** job concluded

   *** monte carlo  index =           21 ***

 minout=  38.8919n    at=   1.3205n
             from=   1.0000n    to=   3.8000n
 maxout=  38.8919n    at=   1.1205n
             from=   1.0000n    to=   3.8000n

          ***** job concluded

   *** monte carlo  index =           22 ***

 minout= 844.9619n    at=   1.3205n
             from=   1.0000n    to=   3.8000n
 maxout= 844.9619n    at=   1.1205n
             from=   1.0000n    to=   3.8000n

          ***** job concluded

   *** monte carlo  index =           23 ***

 minout= 494.0622n    at=   1.1205n
             from=   1.0000n    to=   3.8000n
 maxout= 494.0622n    at=   1.3205n
             from=   1.0000n    to=   3.8000n

          ***** job concluded

   *** monte carlo  index =           24 ***

 minout=   3.8719n    at=   1.3205n
             from=   1.0000n    to=   3.8000n
 maxout=   3.8719n    at=   1.1205n
             from=   1.0000n    to=   3.8000n

          ***** job concluded

   *** monte carlo  index =           25 ***

 minout= 241.9115n    at=   1.1205n
             from=   1.0000n    to=   3.8000n
 maxout= 241.9115n    at=   1.3205n
             from=   1.0000n    to=   3.8000n

          ***** job concluded

   *** monte carlo  index =           26 ***

 minout= 691.7082n    at=   1.3205n
             from=   1.0000n    to=   3.8000n
 maxout= 691.7082n    at=   1.1205n
             from=   1.0000n    to=   3.8000n

          ***** job concluded

   *** monte carlo  index =           27 ***

 minout=   4.8947u    at=   1.1205n
             from=   1.0000n    to=   3.8000n
 maxout=   4.8947u    at=   1.3205n
             from=   1.0000n    to=   3.8000n

          ***** job concluded

   *** monte carlo  index =           28 ***

 minout=   1.6114u    at=   1.1205n
             from=   1.0000n    to=   3.8000n
 maxout=   1.6114u    at=   1.3205n
             from=   1.0000n    to=   3.8000n

          ***** job concluded

   *** monte carlo  index =           29 ***

 minout=  22.7445n    at=   1.3205n
             from=   1.0000n    to=   3.8000n
 maxout=  22.7445n    at=   1.1205n
             from=   1.0000n    to=   3.8000n

          ***** job concluded

   *** monte carlo  index =           30 ***

 minout= 371.3022n    at=   1.3205n
             from=   1.0000n    to=   3.8000n
 maxout= 371.3022n    at=   1.1205n
             from=   1.0000n    to=   3.8000n

          ***** job concluded

   *** monte carlo  index =           31 ***

 minout=   8.9126n    at=   1.1205n
             from=   1.0000n    to=   3.8000n
 maxout=   8.9126n    at=   1.3205n
             from=   1.0000n    to=   3.8000n

          ***** job concluded

   *** monte carlo  index =           32 ***

 minout= 772.6226n    at=   1.1205n
             from=   1.0000n    to=   3.8000n
 maxout= 772.6226n    at=   1.3205n
             from=   1.0000n    to=   3.8000n

          ***** job concluded

   *** monte carlo  index =           33 ***

 minout=   1.6315u    at=   1.1205n
             from=   1.0000n    to=   3.8000n
 maxout=   1.6315u    at=   1.3205n
             from=   1.0000n    to=   3.8000n

          ***** job concluded

   *** monte carlo  index =           34 ***

 minout= 415.8618n    at=   1.1205n
             from=   1.0000n    to=   3.8000n
 maxout= 415.8618n    at=   1.3205n
             from=   1.0000n    to=   3.8000n

          ***** job concluded

   *** monte carlo  index =           35 ***

 minout=   5.0718u    at=   1.7205n
             from=   1.0000n    to=   3.8000n
 maxout=   5.0718u    at=   1.5205n
             from=   1.0000n    to=   3.8000n

          ***** job concluded

   *** monte carlo  index =           36 ***

 minout= 409.4405n    at=   1.3205n
             from=   1.0000n    to=   3.8000n
 maxout= 409.4405n    at=   1.1205n
             from=   1.0000n    to=   3.8000n

          ***** job concluded

   *** monte carlo  index =           37 ***

 minout= 246.4276n    at=   1.1205n
             from=   1.0000n    to=   3.8000n
 maxout= 246.4276n    at=   1.3205n
             from=   1.0000n    to=   3.8000n

          ***** job concluded

   *** monte carlo  index =           38 ***

 minout= 145.6856n    at=   1.1205n
             from=   1.0000n    to=   3.8000n
 maxout= 145.6856n    at=   1.3205n
             from=   1.0000n    to=   3.8000n

          ***** job concluded

   *** monte carlo  index =           39 ***

 minout=  12.3531n    at=   1.3205n
             from=   1.0000n    to=   3.8000n
 maxout=  12.3531n    at=   1.1205n
             from=   1.0000n    to=   3.8000n

          ***** job concluded

   *** monte carlo  index =           40 ***

 minout= 575.9383n    at=   1.1205n
             from=   1.0000n    to=   3.8000n
 maxout= 575.9383n    at=   1.3205n
             from=   1.0000n    to=   3.8000n

          ***** job concluded

   *** monte carlo  index =           41 ***

 minout=  10.6319n    at=   1.3205n
             from=   1.0000n    to=   3.8000n
 maxout=  10.6319n    at=   1.1205n
             from=   1.0000n    to=   3.8000n

          ***** job concluded

   *** monte carlo  index =           42 ***

 minout=  16.9786n    at=   1.3205n
             from=   1.0000n    to=   3.8000n
 maxout=  16.9786n    at=   1.1205n
             from=   1.0000n    to=   3.8000n

          ***** job concluded

   *** monte carlo  index =           43 ***

 minout= 747.7267n    at=   1.3205n
             from=   1.0000n    to=   3.8000n
 maxout= 747.7267n    at=   1.1205n
             from=   1.0000n    to=   3.8000n

          ***** job concluded

   *** monte carlo  index =           44 ***

 minout= 250.4607n    at=   1.1205n
             from=   1.0000n    to=   3.8000n
 maxout= 250.4607n    at=   1.3205n
             from=   1.0000n    to=   3.8000n

          ***** job concluded

   *** monte carlo  index =           45 ***

 minout=  75.9249n    at=   1.3205n
             from=   1.0000n    to=   3.8000n
 maxout=  75.9249n    at=   1.1205n
             from=   1.0000n    to=   3.8000n

          ***** job concluded

   *** monte carlo  index =           46 ***

 minout= 513.4805n    at=   1.1205n
             from=   1.0000n    to=   3.8000n
 maxout= 513.4805n    at=   1.3205n
             from=   1.0000n    to=   3.8000n

          ***** job concluded

   *** monte carlo  index =           47 ***

 minout= 688.3709n    at=   1.1205n
             from=   1.0000n    to=   3.8000n
 maxout= 688.3709n    at=   1.3205n
             from=   1.0000n    to=   3.8000n

          ***** job concluded

   *** monte carlo  index =           48 ***

 minout=  75.1250n    at=   1.1205n
             from=   1.0000n    to=   3.8000n
 maxout=  75.1250n    at=   1.3205n
             from=   1.0000n    to=   3.8000n

          ***** job concluded

   *** monte carlo  index =           49 ***

 minout=  12.3561n    at=   1.3205n
             from=   1.0000n    to=   3.8000n
 maxout=  12.3561n    at=   1.1205n
             from=   1.0000n    to=   3.8000n

          ***** job concluded

   *** monte carlo  index =           50 ***

 minout=   9.9639n    at=   1.3205n
             from=   1.0000n    to=   3.8000n
 maxout=   9.9639n    at=   1.1205n
             from=   1.0000n    to=   3.8000n

          ***** job concluded

   *** monte carlo  index =           51 ***

 minout= 751.8072n    at=   1.3205n
             from=   1.0000n    to=   3.8000n
 maxout= 751.8072n    at=   1.1205n
             from=   1.0000n    to=   3.8000n

          ***** job concluded

   *** monte carlo  index =           52 ***

 minout=  56.6668n    at=   1.1205n
             from=   1.0000n    to=   3.8000n
 maxout=  56.6668n    at=   1.3205n
             from=   1.0000n    to=   3.8000n

          ***** job concluded

   *** monte carlo  index =           53 ***

 minout=   1.5881u    at=   1.3205n
             from=   1.0000n    to=   3.8000n
 maxout=   1.5881u    at=   1.1205n
             from=   1.0000n    to=   3.8000n

          ***** job concluded

   *** monte carlo  index =           54 ***

 minout=  81.2693n    at=   1.3205n
             from=   1.0000n    to=   3.8000n
 maxout=  81.2693n    at=   1.1205n
             from=   1.0000n    to=   3.8000n

          ***** job concluded

   *** monte carlo  index =           55 ***

 minout=  40.9238u    at=   1.1205n
             from=   1.0000n    to=   3.8000n
 maxout=  40.9238u    at=   1.3205n
             from=   1.0000n    to=   3.8000n

          ***** job concluded

   *** monte carlo  index =           56 ***

 minout=  25.2090n    at=   1.3205n
             from=   1.0000n    to=   3.8000n
 maxout=  25.2090n    at=   1.1205n
             from=   1.0000n    to=   3.8000n

          ***** job concluded

   *** monte carlo  index =           57 ***

 minout= 185.1071n    at=   1.1205n
             from=   1.0000n    to=   3.8000n
 maxout= 185.1071n    at=   1.3205n
             from=   1.0000n    to=   3.8000n

          ***** job concluded

   *** monte carlo  index =           58 ***

 minout=  66.4303n    at=   1.1205n
             from=   1.0000n    to=   3.8000n
 maxout=  66.4303n    at=   1.3205n
             from=   1.0000n    to=   3.8000n

          ***** job concluded

   *** monte carlo  index =           59 ***

 minout= 845.4312n    at=   1.1205n
             from=   1.0000n    to=   3.8000n
 maxout= 845.4312n    at=   1.3205n
             from=   1.0000n    to=   3.8000n

          ***** job concluded

   *** monte carlo  index =           60 ***

 minout=  35.3168n    at=   1.3205n
             from=   1.0000n    to=   3.8000n
 maxout=  35.3168n    at=   1.1205n
             from=   1.0000n    to=   3.8000n

          ***** job concluded

   *** monte carlo  index =           61 ***

 minout=  64.6942n    at=   1.1205n
             from=   1.0000n    to=   3.8000n
 maxout=  64.6942n    at=   1.3205n
             from=   1.0000n    to=   3.8000n

          ***** job concluded

   *** monte carlo  index =           62 ***

 minout=   1.1100u    at=   1.1205n
             from=   1.0000n    to=   3.8000n
 maxout=   1.1100u    at=   1.3205n
             from=   1.0000n    to=   3.8000n

          ***** job concluded

   *** monte carlo  index =           63 ***

 minout=  17.4074n    at=   1.3205n
             from=   1.0000n    to=   3.8000n
 maxout=  17.4074n    at=   1.1205n
             from=   1.0000n    to=   3.8000n

          ***** job concluded

   *** monte carlo  index =           64 ***

 minout= 191.5798n    at=   1.1205n
             from=   1.0000n    to=   3.8000n
 maxout= 191.5798n    at=   1.3205n
             from=   1.0000n    to=   3.8000n

          ***** job concluded

   *** monte carlo  index =           65 ***

 minout= 373.5868n    at=   1.1205n
             from=   1.0000n    to=   3.8000n
 maxout= 373.5868n    at=   1.3205n
             from=   1.0000n    to=   3.8000n

          ***** job concluded

   *** monte carlo  index =           66 ***

 minout=  12.6436n    at=   1.3205n
             from=   1.0000n    to=   3.8000n
 maxout=  12.6436n    at=   1.1205n
             from=   1.0000n    to=   3.8000n

          ***** job concluded

   *** monte carlo  index =           67 ***

 minout=   4.5986n    at=   1.3205n
             from=   1.0000n    to=   3.8000n
 maxout=   4.5986n    at=   1.1205n
             from=   1.0000n    to=   3.8000n

          ***** job concluded

   *** monte carlo  index =           68 ***

 minout=  38.8702n    at=   1.1205n
             from=   1.0000n    to=   3.8000n
 maxout=  38.8702n    at=   1.3205n
             from=   1.0000n    to=   3.8000n

          ***** job concluded

   *** monte carlo  index =           69 ***

 minout= 197.3546n    at=   1.3205n
             from=   1.0000n    to=   3.8000n
 maxout= 197.3546n    at=   1.1205n
             from=   1.0000n    to=   3.8000n

          ***** job concluded

   *** monte carlo  index =           70 ***

 minout=   1.5735u    at=   1.1205n
             from=   1.0000n    to=   3.8000n
 maxout=   1.5735u    at=   1.3205n
             from=   1.0000n    to=   3.8000n

          ***** job concluded

   *** monte carlo  index =           71 ***

 minout=  35.3969u    at=   1.7205n
             from=   1.0000n    to=   3.8000n
 maxout=  35.3969u    at=   1.5205n
             from=   1.0000n    to=   3.8000n

          ***** job concluded

   *** monte carlo  index =           72 ***

 minout= 189.2977n    at=   1.1205n
             from=   1.0000n    to=   3.8000n
 maxout= 189.2977n    at=   1.3205n
             from=   1.0000n    to=   3.8000n

          ***** job concluded

   *** monte carlo  index =           73 ***

 minout=   2.1754n    at=   1.3205n
             from=   1.0000n    to=   3.8000n
 maxout=   2.1754n    at=   1.1205n
             from=   1.0000n    to=   3.8000n

          ***** job concluded

   *** monte carlo  index =           74 ***

 minout=  57.4749n    at=   1.3205n
             from=   1.0000n    to=   3.8000n
 maxout=  57.4749n    at=   1.1205n
             from=   1.0000n    to=   3.8000n

          ***** job concluded

   *** monte carlo  index =           75 ***

 minout=  37.1481n    at=   1.1205n
             from=   1.0000n    to=   3.8000n
 maxout=  37.1481n    at=   1.3205n
             from=   1.0000n    to=   3.8000n

          ***** job concluded

   *** monte carlo  index =           76 ***

 minout= 643.2138n    at=   1.1205n
             from=   1.0000n    to=   3.8000n
 maxout= 643.2138n    at=   1.3205n
             from=   1.0000n    to=   3.8000n

          ***** job concluded

   *** monte carlo  index =           77 ***

 minout=   1.6659u    at=   1.1205n
             from=   1.0000n    to=   3.8000n
 maxout=   1.6659u    at=   1.3205n
             from=   1.0000n    to=   3.8000n

          ***** job concluded

   *** monte carlo  index =           78 ***

 minout=   2.8127n    at=   1.1205n
             from=   1.0000n    to=   3.8000n
 maxout=   2.8127n    at=   1.3205n
             from=   1.0000n    to=   3.8000n

          ***** job concluded

   *** monte carlo  index =           79 ***

 minout=   2.6713n    at=   1.3205n
             from=   1.0000n    to=   3.8000n
 maxout=   2.6713n    at=   1.1205n
             from=   1.0000n    to=   3.8000n

          ***** job concluded

   *** monte carlo  index =           80 ***

 minout=   9.8074u    at=   1.3205n
             from=   1.0000n    to=   3.8000n
 maxout=   9.8074u    at=   1.1205n
             from=   1.0000n    to=   3.8000n

          ***** job concluded

   *** monte carlo  index =           81 ***

 minout=  35.2712n    at=   1.3205n
             from=   1.0000n    to=   3.8000n
 maxout=  35.2712n    at=   1.1205n
             from=   1.0000n    to=   3.8000n

          ***** job concluded

   *** monte carlo  index =           82 ***

 minout= 532.4060n    at=   1.1205n
             from=   1.0000n    to=   3.8000n
 maxout= 532.4060n    at=   1.3205n
             from=   1.0000n    to=   3.8000n

          ***** job concluded

   *** monte carlo  index =           83 ***

 minout=  30.5210n    at=   1.1205n
             from=   1.0000n    to=   3.8000n
 maxout=  30.5210n    at=   1.3205n
             from=   1.0000n    to=   3.8000n

          ***** job concluded

   *** monte carlo  index =           84 ***

 minout=   5.8981n    at=   1.1205n
             from=   1.0000n    to=   3.8000n
 maxout=   5.8981n    at=   1.3205n
             from=   1.0000n    to=   3.8000n

          ***** job concluded

   *** monte carlo  index =           85 ***

 minout=   1.4827u    at=   1.3205n
             from=   1.0000n    to=   3.8000n
 maxout=   1.4827u    at=   1.1205n
             from=   1.0000n    to=   3.8000n

          ***** job concluded

   *** monte carlo  index =           86 ***

 minout= 191.9821n    at=   1.3205n
             from=   1.0000n    to=   3.8000n
 maxout= 191.9821n    at=   1.1205n
             from=   1.0000n    to=   3.8000n

          ***** job concluded

   *** monte carlo  index =           87 ***

 minout=   4.5855u    at=   1.3205n
             from=   1.0000n    to=   3.8000n
 maxout=   4.5855u    at=   1.1205n
             from=   1.0000n    to=   3.8000n

          ***** job concluded

   *** monte carlo  index =           88 ***

 minout=   8.8641u    at=   1.3205n
             from=   1.0000n    to=   3.8000n
 maxout=   8.8641u    at=   1.1205n
             from=   1.0000n    to=   3.8000n

          ***** job concluded

   *** monte carlo  index =           89 ***

 minout=   8.6152u    at=   1.1205n
             from=   1.0000n    to=   3.8000n
 maxout=   8.6152u    at=   1.3205n
             from=   1.0000n    to=   3.8000n

          ***** job concluded

   *** monte carlo  index =           90 ***

 minout= 339.1701n    at=   1.3205n
             from=   1.0000n    to=   3.8000n
 maxout= 339.1701n    at=   1.1205n
             from=   1.0000n    to=   3.8000n

          ***** job concluded

   *** monte carlo  index =           91 ***

 minout=  13.7784n    at=   1.1205n
             from=   1.0000n    to=   3.8000n
 maxout=  13.7784n    at=   1.3205n
             from=   1.0000n    to=   3.8000n

          ***** job concluded

   *** monte carlo  index =           92 ***

 minout= 106.9454n    at=   1.1205n
             from=   1.0000n    to=   3.8000n
 maxout= 106.9454n    at=   1.3205n
             from=   1.0000n    to=   3.8000n

          ***** job concluded

   *** monte carlo  index =           93 ***

 minout=  34.6442n    at=   1.1205n
             from=   1.0000n    to=   3.8000n
 maxout=  34.6442n    at=   1.3205n
             from=   1.0000n    to=   3.8000n

          ***** job concluded

   *** monte carlo  index =           94 ***

 minout= 827.0984n    at=   1.1205n
             from=   1.0000n    to=   3.8000n
 maxout= 827.0984n    at=   1.3205n
             from=   1.0000n    to=   3.8000n

          ***** job concluded

   *** monte carlo  index =           95 ***

 minout= 697.6001n    at=   1.3205n
             from=   1.0000n    to=   3.8000n
 maxout= 697.6001n    at=   1.1205n
             from=   1.0000n    to=   3.8000n

          ***** job concluded

   *** monte carlo  index =           96 ***

 minout= 232.6403n    at=   1.3205n
             from=   1.0000n    to=   3.8000n
 maxout= 232.6403n    at=   1.1205n
             from=   1.0000n    to=   3.8000n

          ***** job concluded

   *** monte carlo  index =           97 ***

 minout= 161.5428n    at=   1.3205n
             from=   1.0000n    to=   3.8000n
 maxout= 161.5428n    at=   1.1205n
             from=   1.0000n    to=   3.8000n

          ***** job concluded

   *** monte carlo  index =           98 ***

 minout=  72.4457n    at=   1.1205n
             from=   1.0000n    to=   3.8000n
 maxout=  72.4457n    at=   1.3205n
             from=   1.0000n    to=   3.8000n

          ***** job concluded

   *** monte carlo  index =           99 ***

 minout=   1.8547u    at=   1.1205n
             from=   1.0000n    to=   3.8000n
 maxout=   1.8547u    at=   1.3205n
             from=   1.0000n    to=   3.8000n

          ***** job concluded

   *** monte carlo  index =          100 ***

 minout=   6.3029u    at=   1.1205n
             from=   1.0000n    to=   3.8000n
 maxout=   6.3029u    at=   1.3205n
             from=   1.0000n    to=   3.8000n

          ***** job concluded

   *** monte carlo  index =          101 ***

 minout=  54.6791u    at=   1.3205n
             from=   1.0000n    to=   3.8000n
 maxout=  54.6791u    at=   3.5205n
             from=   1.0000n    to=   3.8000n

          ***** job concluded

   *** monte carlo  index =          102 ***

 minout=   5.8379n    at=   1.3205n
             from=   1.0000n    to=   3.8000n
 maxout=   5.8379n    at=   1.1205n
             from=   1.0000n    to=   3.8000n

          ***** job concluded

   *** monte carlo  index =          103 ***

 minout= 234.0334n    at=   1.1205n
             from=   1.0000n    to=   3.8000n
 maxout= 234.0334n    at=   1.3205n
             from=   1.0000n    to=   3.8000n

          ***** job concluded

   *** monte carlo  index =          104 ***

 minout=  77.5582n    at=   1.1205n
             from=   1.0000n    to=   3.8000n
 maxout=  77.5582n    at=   1.3205n
             from=   1.0000n    to=   3.8000n

          ***** job concluded

   *** monte carlo  index =          105 ***

 minout=  42.6389n    at=   1.3205n
             from=   1.0000n    to=   3.8000n
 maxout=  42.6389n    at=   1.1205n
             from=   1.0000n    to=   3.8000n

          ***** job concluded

   *** monte carlo  index =          106 ***

 minout=  78.8466n    at=   1.1205n
             from=   1.0000n    to=   3.8000n
 maxout=  78.8466n    at=   1.3205n
             from=   1.0000n    to=   3.8000n

          ***** job concluded

   *** monte carlo  index =          107 ***

 minout= 188.2319n    at=   1.1205n
             from=   1.0000n    to=   3.8000n
 maxout= 188.2319n    at=   1.3205n
             from=   1.0000n    to=   3.8000n

          ***** job concluded

   *** monte carlo  index =          108 ***

 minout=  40.7572n    at=   1.3205n
             from=   1.0000n    to=   3.8000n
 maxout=  40.7572n    at=   1.1205n
             from=   1.0000n    to=   3.8000n

          ***** job concluded

   *** monte carlo  index =          109 ***

 minout=  24.3395n    at=   1.1205n
             from=   1.0000n    to=   3.8000n
 maxout=  24.3395n    at=   1.3205n
             from=   1.0000n    to=   3.8000n

          ***** job concluded

   *** monte carlo  index =          110 ***

 minout=  91.6226n    at=   1.1205n
             from=   1.0000n    to=   3.8000n
 maxout=  91.6226n    at=   1.3205n
             from=   1.0000n    to=   3.8000n

          ***** job concluded

   *** monte carlo  index =          111 ***

 minout=   1.9212u    at=   1.3205n
             from=   1.0000n    to=   3.8000n
 maxout=   1.9212u    at=   1.1205n
             from=   1.0000n    to=   3.8000n

          ***** job concluded

   *** monte carlo  index =          112 ***

 minout=  14.5569n    at=   1.1205n
             from=   1.0000n    to=   3.8000n
 maxout=  14.5569n    at=   1.3205n
             from=   1.0000n    to=   3.8000n

          ***** job concluded

   *** monte carlo  index =          113 ***

 minout=   3.3918n    at=   1.1205n
             from=   1.0000n    to=   3.8000n
 maxout=   3.3918n    at=   1.3205n
             from=   1.0000n    to=   3.8000n

          ***** job concluded

   *** monte carlo  index =          114 ***

 minout=   1.0418u    at=   1.1205n
             from=   1.0000n    to=   3.8000n
 maxout=   1.0418u    at=   1.3205n
             from=   1.0000n    to=   3.8000n

          ***** job concluded

   *** monte carlo  index =          115 ***

 minout=   6.6073u    at=   2.5205n
             from=   1.0000n    to=   3.8000n
 maxout=   6.6073u    at=   2.3205n
             from=   1.0000n    to=   3.8000n

          ***** job concluded

   *** monte carlo  index =          116 ***

 minout=   1.1194u    at=   1.3205n
             from=   1.0000n    to=   3.8000n
 maxout=   1.1194u    at=   1.1205n
             from=   1.0000n    to=   3.8000n

          ***** job concluded

   *** monte carlo  index =          117 ***

 minout=  58.1071n    at=   1.1205n
             from=   1.0000n    to=   3.8000n
 maxout=  58.1071n    at=   1.3205n
             from=   1.0000n    to=   3.8000n

          ***** job concluded

   *** monte carlo  index =          118 ***

 minout= 188.3870u    at=   1.1205n
             from=   1.0000n    to=   3.8000n
 maxout= 188.3870u    at=   1.3205n
             from=   1.0000n    to=   3.8000n

          ***** job concluded

   *** monte carlo  index =          119 ***

 minout=   8.3844n    at=   1.1205n
             from=   1.0000n    to=   3.8000n
 maxout=   8.3844n    at=   1.3205n
             from=   1.0000n    to=   3.8000n

          ***** job concluded

   *** monte carlo  index =          120 ***

 minout=   1.1429u    at=   1.1205n
             from=   1.0000n    to=   3.8000n
 maxout=   1.1429u    at=   1.3205n
             from=   1.0000n    to=   3.8000n

          ***** job concluded

   *** monte carlo  index =          121 ***

 minout=  19.8646n    at=   1.3205n
             from=   1.0000n    to=   3.8000n
 maxout=  19.8646n    at=   1.1205n
             from=   1.0000n    to=   3.8000n

          ***** job concluded

   *** monte carlo  index =          122 ***

 minout= 545.3595n    at=   1.1205n
             from=   1.0000n    to=   3.8000n
 maxout= 545.3595n    at=   1.3205n
             from=   1.0000n    to=   3.8000n

          ***** job concluded

   *** monte carlo  index =          123 ***

 minout=  10.0135n    at=   1.3205n
             from=   1.0000n    to=   3.8000n
 maxout=  10.0135n    at=   1.1205n
             from=   1.0000n    to=   3.8000n

          ***** job concluded

   *** monte carlo  index =          124 ***

 minout=   6.1630n    at=   1.3205n
             from=   1.0000n    to=   3.8000n
 maxout=   6.1630n    at=   1.1205n
             from=   1.0000n    to=   3.8000n

          ***** job concluded

   *** monte carlo  index =          125 ***

 minout=  32.8535n    at=   1.1205n
             from=   1.0000n    to=   3.8000n
 maxout=  32.8535n    at=   1.3205n
             from=   1.0000n    to=   3.8000n

          ***** job concluded

   *** monte carlo  index =          126 ***

 minout=  29.1312n    at=   1.3205n
             from=   1.0000n    to=   3.8000n
 maxout=  29.1312n    at=   1.1205n
             from=   1.0000n    to=   3.8000n

          ***** job concluded

   *** monte carlo  index =          127 ***

 minout=  21.5237n    at=   1.1205n
             from=   1.0000n    to=   3.8000n
 maxout=  21.5237n    at=   1.3205n
             from=   1.0000n    to=   3.8000n

          ***** job concluded

   *** monte carlo  index =          128 ***

 minout=   1.4330n    at=   1.3205n
             from=   1.0000n    to=   3.8000n
 maxout=   1.4330n    at=   1.1205n
             from=   1.0000n    to=   3.8000n

          ***** job concluded

   *** monte carlo  index =          129 ***

 minout= 535.0175n    at=   1.1205n
             from=   1.0000n    to=   3.8000n
 maxout= 535.0175n    at=   1.3205n
             from=   1.0000n    to=   3.8000n

          ***** job concluded

   *** monte carlo  index =          130 ***

 minout= 397.4502n    at=   1.3205n
             from=   1.0000n    to=   3.8000n
 maxout= 397.4502n    at=   1.1205n
             from=   1.0000n    to=   3.8000n

          ***** job concluded

   *** monte carlo  index =          131 ***

 minout= 724.0421n    at=   1.3205n
             from=   1.0000n    to=   3.8000n
 maxout= 724.0421n    at=   1.1205n
             from=   1.0000n    to=   3.8000n

          ***** job concluded

   *** monte carlo  index =          132 ***

 minout=   2.6872n    at=   1.3205n
             from=   1.0000n    to=   3.8000n
 maxout=   2.6872n    at=   1.1205n
             from=   1.0000n    to=   3.8000n

          ***** job concluded

   *** monte carlo  index =          133 ***

 minout=   1.6021n    at=   1.1205n
             from=   1.0000n    to=   3.8000n
 maxout=   1.6021n    at=   1.3205n
             from=   1.0000n    to=   3.8000n

          ***** job concluded

   *** monte carlo  index =          134 ***

 minout=   1.2374u    at=   1.3205n
             from=   1.0000n    to=   3.8000n
 maxout=   1.2374u    at=   1.1205n
             from=   1.0000n    to=   3.8000n

          ***** job concluded

   *** monte carlo  index =          135 ***

 minout= 315.7473n    at=   1.1205n
             from=   1.0000n    to=   3.8000n
 maxout= 315.7473n    at=   1.3205n
             from=   1.0000n    to=   3.8000n

          ***** job concluded

   *** monte carlo  index =          136 ***

 minout=  73.8882u    at=   1.1205n
             from=   1.0000n    to=   3.8000n
 maxout=  73.8882u    at=   1.3205n
             from=   1.0000n    to=   3.8000n

          ***** job concluded

   *** monte carlo  index =          137 ***

 minout=   2.1074n    at=   1.3205n
             from=   1.0000n    to=   3.8000n
 maxout=   2.1074n    at=   1.1205n
             from=   1.0000n    to=   3.8000n

          ***** job concluded

   *** monte carlo  index =          138 ***

 minout=  47.1528n    at=   1.3205n
             from=   1.0000n    to=   3.8000n
 maxout=  47.1528n    at=   1.1205n
             from=   1.0000n    to=   3.8000n

          ***** job concluded

   *** monte carlo  index =          139 ***

 minout=   6.1080n    at=   1.3205n
             from=   1.0000n    to=   3.8000n
 maxout=   6.1080n    at=   1.1205n
             from=   1.0000n    to=   3.8000n

          ***** job concluded

   *** monte carlo  index =          140 ***

 minout=   9.7907n    at=   1.1205n
             from=   1.0000n    to=   3.8000n
 maxout=   9.7907n    at=   1.3205n
             from=   1.0000n    to=   3.8000n

          ***** job concluded

   *** monte carlo  index =          141 ***

 minout= 290.2208n    at=   1.3205n
             from=   1.0000n    to=   3.8000n
 maxout= 290.2208n    at=   1.1205n
             from=   1.0000n    to=   3.8000n

          ***** job concluded

   *** monte carlo  index =          142 ***

 minout=   1.2874u    at=   1.3205n
             from=   1.0000n    to=   3.8000n
 maxout=   1.2874u    at=   1.1205n
             from=   1.0000n    to=   3.8000n

          ***** job concluded

   *** monte carlo  index =          143 ***

 minout= 398.4589n    at=   1.3205n
             from=   1.0000n    to=   3.8000n
 maxout= 398.4589n    at=   1.1205n
             from=   1.0000n    to=   3.8000n

          ***** job concluded

   *** monte carlo  index =          144 ***

 minout=   5.2606n    at=   1.1205n
             from=   1.0000n    to=   3.8000n
 maxout=   5.2606n    at=   1.3205n
             from=   1.0000n    to=   3.8000n

          ***** job concluded

   *** monte carlo  index =          145 ***

 minout= 132.3455n    at=   1.3205n
             from=   1.0000n    to=   3.8000n
 maxout= 132.3455n    at=   1.1205n
             from=   1.0000n    to=   3.8000n

          ***** job concluded

   *** monte carlo  index =          146 ***

 minout=  65.0363n    at=   1.1205n
             from=   1.0000n    to=   3.8000n
 maxout=  65.0363n    at=   1.3205n
             from=   1.0000n    to=   3.8000n

          ***** job concluded

   *** monte carlo  index =          147 ***

 minout=  13.1642n    at=   1.3205n
             from=   1.0000n    to=   3.8000n
 maxout=  13.1642n    at=   1.1205n
             from=   1.0000n    to=   3.8000n

          ***** job concluded

   *** monte carlo  index =          148 ***

 minout=  18.4876n    at=   1.1205n
             from=   1.0000n    to=   3.8000n
 maxout=  18.4876n    at=   1.3205n
             from=   1.0000n    to=   3.8000n

          ***** job concluded

   *** monte carlo  index =          149 ***

 minout=  68.6787n    at=   1.1205n
             from=   1.0000n    to=   3.8000n
 maxout=  68.6787n    at=   1.3205n
             from=   1.0000n    to=   3.8000n

          ***** job concluded

   *** monte carlo  index =          150 ***

 minout=   2.7107u    at=   1.3205n
             from=   1.0000n    to=   3.8000n
 maxout=   2.7107u    at=   1.1205n
             from=   1.0000n    to=   3.8000n

          ***** job concluded

   *** monte carlo  index =          151 ***

 minout=  18.6444n    at=   1.1205n
             from=   1.0000n    to=   3.8000n
 maxout=  18.6444n    at=   1.3205n
             from=   1.0000n    to=   3.8000n

          ***** job concluded

   *** monte carlo  index =          152 ***

 minout=  79.7920n    at=   1.1205n
             from=   1.0000n    to=   3.8000n
 maxout=  79.7920n    at=   1.3205n
             from=   1.0000n    to=   3.8000n

          ***** job concluded

   *** monte carlo  index =          153 ***

 minout=  56.3941n    at=   1.1205n
             from=   1.0000n    to=   3.8000n
 maxout=  56.3941n    at=   1.3205n
             from=   1.0000n    to=   3.8000n

          ***** job concluded

   *** monte carlo  index =          154 ***

 minout=   5.2897n    at=   1.3205n
             from=   1.0000n    to=   3.8000n
 maxout=   5.2897n    at=   1.1205n
             from=   1.0000n    to=   3.8000n

          ***** job concluded

   *** monte carlo  index =          155 ***

 minout= 140.3130n    at=   2.1205n
             from=   1.0000n    to=   3.8000n
 maxout= 140.3130n    at=   1.5205n
             from=   1.0000n    to=   3.8000n

          ***** job concluded

   *** monte carlo  index =          156 ***

 minout=   9.6469n    at=   1.3205n
             from=   1.0000n    to=   3.8000n
 maxout=   9.6469n    at=   1.1205n
             from=   1.0000n    to=   3.8000n

          ***** job concluded

   *** monte carlo  index =          157 ***

 minout= 380.5063n    at=   1.1205n
             from=   1.0000n    to=   3.8000n
 maxout= 380.5063n    at=   1.3205n
             from=   1.0000n    to=   3.8000n

          ***** job concluded

   *** monte carlo  index =          158 ***

 minout=   1.7786n    at=   1.3205n
             from=   1.0000n    to=   3.8000n
 maxout=   1.7786n    at=   1.1205n
             from=   1.0000n    to=   3.8000n

          ***** job concluded

   *** monte carlo  index =          159 ***

 minout=  54.0008n    at=   1.1205n
             from=   1.0000n    to=   3.8000n
 maxout=  54.0008n    at=   1.3205n
             from=   1.0000n    to=   3.8000n

          ***** job concluded

   *** monte carlo  index =          160 ***

 minout= 199.1164n    at=   1.1205n
             from=   1.0000n    to=   3.8000n
 maxout= 199.1164n    at=   1.3205n
             from=   1.0000n    to=   3.8000n

          ***** job concluded

   *** monte carlo  index =          161 ***

 minout= 341.8031n    at=   1.3205n
             from=   1.0000n    to=   3.8000n
 maxout= 341.8031n    at=   1.1205n
             from=   1.0000n    to=   3.8000n

          ***** job concluded

   *** monte carlo  index =          162 ***

 minout=  25.5159u    at=   1.3205n
             from=   1.0000n    to=   3.8000n
 maxout=  25.5159u    at=   1.9205n
             from=   1.0000n    to=   3.8000n

          ***** job concluded

   *** monte carlo  index =          163 ***

 minout=   5.2712n    at=   1.1205n
             from=   1.0000n    to=   3.8000n
 maxout=   5.2712n    at=   1.3205n
             from=   1.0000n    to=   3.8000n

          ***** job concluded

   *** monte carlo  index =          164 ***

 minout= 195.0972n    at=   1.1205n
             from=   1.0000n    to=   3.8000n
 maxout= 195.0972n    at=   1.3205n
             from=   1.0000n    to=   3.8000n

          ***** job concluded

   *** monte carlo  index =          165 ***

 minout=  40.3960u    at=   1.7205n
             from=   1.0000n    to=   3.8000n
 maxout=  40.3960u    at=   1.5205n
             from=   1.0000n    to=   3.8000n

          ***** job concluded

   *** monte carlo  index =          166 ***

 minout=   1.1016u    at=   1.3205n
             from=   1.0000n    to=   3.8000n
 maxout=   1.1016u    at=   1.1205n
             from=   1.0000n    to=   3.8000n

          ***** job concluded

   *** monte carlo  index =          167 ***

 minout= 503.0115n    at=   1.1205n
             from=   1.0000n    to=   3.8000n
 maxout= 503.0115n    at=   1.3205n
             from=   1.0000n    to=   3.8000n

          ***** job concluded

   *** monte carlo  index =          168 ***

 minout= 103.5752n    at=   1.3205n
             from=   1.0000n    to=   3.8000n
 maxout= 103.5752n    at=   1.1205n
             from=   1.0000n    to=   3.8000n

          ***** job concluded

   *** monte carlo  index =          169 ***

 minout= 259.7719n    at=   1.1205n
             from=   1.0000n    to=   3.8000n
 maxout= 259.7719n    at=   1.3205n
             from=   1.0000n    to=   3.8000n

          ***** job concluded

   *** monte carlo  index =          170 ***

 minout= 208.8140n    at=   1.1205n
             from=   1.0000n    to=   3.8000n
 maxout= 208.8140n    at=   1.3205n
             from=   1.0000n    to=   3.8000n

          ***** job concluded

   *** monte carlo  index =          171 ***

 minout=   2.0324n    at=   1.1205n
             from=   1.0000n    to=   3.8000n
 maxout=   2.0324n    at=   1.3205n
[...]

          ***** job concluded

   *** monte carlo  index =         4929 ***

 minout=   2.1720n    at=   1.1205n
             from=   1.0000n    to=   3.8000n
 maxout=   2.1720n    at=   1.3205n
             from=   1.0000n    to=   3.8000n

          ***** job concluded

   *** monte carlo  index =         4930 ***

 minout=  25.7040n    at=   1.1205n
             from=   1.0000n    to=   3.8000n
 maxout=  25.7040n    at=   1.3205n
             from=   1.0000n    to=   3.8000n

          ***** job concluded

   *** monte carlo  index =         4931 ***

 minout= 348.2825n    at=   1.3205n
             from=   1.0000n    to=   3.8000n
 maxout= 348.2825n    at=   1.1205n
             from=   1.0000n    to=   3.8000n

          ***** job concluded

   *** monte carlo  index =         4932 ***

 minout=   3.0969u    at=   1.3205n
             from=   1.0000n    to=   3.8000n
 maxout=   3.0969u    at=   1.1205n
             from=   1.0000n    to=   3.8000n

          ***** job concluded

   *** monte carlo  index =         4933 ***

 minout=  17.6673n    at=   1.1205n
             from=   1.0000n    to=   3.8000n
 maxout=  17.6673n    at=   1.3205n
             from=   1.0000n    to=   3.8000n

          ***** job concluded

   *** monte carlo  index =         4934 ***

 minout=   2.9437u    at=   1.1205n
             from=   1.0000n    to=   3.8000n
 maxout=   2.9437u    at=   1.3205n
             from=   1.0000n    to=   3.8000n

          ***** job concluded

   *** monte carlo  index =         4935 ***

 minout= 803.9458n    at=   1.1205n
             from=   1.0000n    to=   3.8000n
 maxout= 803.9458n    at=   1.3205n
             from=   1.0000n    to=   3.8000n

          ***** job concluded

   *** monte carlo  index =         4936 ***

 minout=   1.1975u    at=   1.1205n
             from=   1.0000n    to=   3.8000n
 maxout=   1.1975u    at=   1.3205n
             from=   1.0000n    to=   3.8000n

          ***** job concluded

   *** monte carlo  index =         4937 ***

 minout=   1.8701n    at=   1.3205n
             from=   1.0000n    to=   3.8000n
 maxout=   1.8701n    at=   1.1205n
             from=   1.0000n    to=   3.8000n

          ***** job concluded

   *** monte carlo  index =         4938 ***

 minout=  74.4082n    at=   1.3205n
             from=   1.0000n    to=   3.8000n
 maxout=  74.4082n    at=   1.1205n
             from=   1.0000n    to=   3.8000n

          ***** job concluded

   *** monte carlo  index =         4939 ***

 minout=   7.9828u    at=   1.3205n
             from=   1.0000n    to=   3.8000n
 maxout=   7.9828u    at=   1.1205n
             from=   1.0000n    to=   3.8000n

          ***** job concluded

   *** monte carlo  index =         4940 ***

 minout= 602.9135n    at=   1.3205n
             from=   1.0000n    to=   3.8000n
 maxout= 602.9135n    at=   1.1205n
             from=   1.0000n    to=   3.8000n

          ***** job concluded

   *** monte carlo  index =         4941 ***

 minout=  20.8292n    at=   1.3205n
             from=   1.0000n    to=   3.8000n
 maxout=  20.8292n    at=   1.1205n
             from=   1.0000n    to=   3.8000n

          ***** job concluded

   *** monte carlo  index =         4942 ***

 minout= 210.4768n    at=   1.1205n
             from=   1.0000n    to=   3.8000n
 maxout= 210.4768n    at=   1.3205n
             from=   1.0000n    to=   3.8000n

          ***** job concluded

   *** monte carlo  index =         4943 ***

 minout= 105.4281n    at=   1.3205n
             from=   1.0000n    to=   3.8000n
 maxout= 105.4281n    at=   1.1205n
             from=   1.0000n    to=   3.8000n

          ***** job concluded

   *** monte carlo  index =         4944 ***

 minout= 789.5770n    at=   1.3205n
             from=   1.0000n    to=   3.8000n
 maxout= 789.5770n    at=   1.1205n
             from=   1.0000n    to=   3.8000n

          ***** job concluded

   *** monte carlo  index =         4945 ***

 minout=   1.1374u    at=   1.7205n
             from=   1.0000n    to=   3.8000n
 maxout=   1.1374u    at=   1.1205n
             from=   1.0000n    to=   3.8000n

          ***** job concluded

   *** monte carlo  index =         4946 ***

 minout= 681.9906n    at=   1.1205n
             from=   1.0000n    to=   3.8000n
 maxout= 681.9906n    at=   1.3205n
             from=   1.0000n    to=   3.8000n

          ***** job concluded

   *** monte carlo  index =         4947 ***

 minout= 175.9244n    at=   1.1205n
             from=   1.0000n    to=   3.8000n
 maxout= 175.9244n    at=   1.3205n
             from=   1.0000n    to=   3.8000n

          ***** job concluded

   *** monte carlo  index =         4948 ***

 minout=   5.2425u    at=   1.1205n
             from=   1.0000n    to=   3.8000n
 maxout=   5.2425u    at=   1.3205n
             from=   1.0000n    to=   3.8000n

          ***** job concluded

   *** monte carlo  index =         4949 ***

 minout= 485.5269n    at=   1.3205n
             from=   1.0000n    to=   3.8000n
 maxout= 485.5269n    at=   1.1205n
             from=   1.0000n    to=   3.8000n

          ***** job concluded

   *** monte carlo  index =         4950 ***

 minout= 841.4745n    at=   1.3205n
             from=   1.0000n    to=   3.8000n
 maxout= 841.4745n    at=   1.1205n
             from=   1.0000n    to=   3.8000n

          ***** job concluded

   *** monte carlo  index =         4951 ***

 minout=  16.9802n    at=   1.3205n
             from=   1.0000n    to=   3.8000n
 maxout=  16.9802n    at=   1.1205n
             from=   1.0000n    to=   3.8000n

          ***** job concluded

   *** monte carlo  index =         4952 ***

 minout=   1.5132u    at=   1.3205n
             from=   1.0000n    to=   3.8000n
 maxout=   1.5132u    at=   1.1205n
             from=   1.0000n    to=   3.8000n

          ***** job concluded

   *** monte carlo  index =         4953 ***

 minout= 246.0817n    at=   1.1205n
             from=   1.0000n    to=   3.8000n
 maxout= 246.0817n    at=   1.3205n
             from=   1.0000n    to=   3.8000n

          ***** job concluded

   *** monte carlo  index =         4954 ***

 minout=   2.4373u    at=   1.3205n
             from=   1.0000n    to=   3.8000n
 maxout=   2.4373u    at=   1.1205n
             from=   1.0000n    to=   3.8000n

          ***** job concluded

   *** monte carlo  index =         4955 ***

 minout=   4.4964n    at=   1.1205n
             from=   1.0000n    to=   3.8000n
 maxout=   4.4964n    at=   1.3205n
             from=   1.0000n    to=   3.8000n

          ***** job concluded

   *** monte carlo  index =         4956 ***

 minout=   2.3765u    at=   1.3205n
             from=   1.0000n    to=   3.8000n
 maxout=   2.3765u    at=   1.1205n
             from=   1.0000n    to=   3.8000n

          ***** job concluded

   *** monte carlo  index =         4957 ***

 minout=   1.7173n    at=   1.1205n
             from=   1.0000n    to=   3.8000n
 maxout=   1.7173n    at=   1.3205n
             from=   1.0000n    to=   3.8000n

          ***** job concluded

   *** monte carlo  index =         4958 ***

 minout= 319.9751n    at=   1.1205n
             from=   1.0000n    to=   3.8000n
 maxout= 319.9751n    at=   1.3205n
             from=   1.0000n    to=   3.8000n

          ***** job concluded

   *** monte carlo  index =         4959 ***

 minout=   3.1604n    at=   1.1205n
             from=   1.0000n    to=   3.8000n
 maxout=   3.1604n    at=   1.3205n
             from=   1.0000n    to=   3.8000n

          ***** job concluded

   *** monte carlo  index =         4960 ***

 minout= 126.8691n    at=   1.3205n
             from=   1.0000n    to=   3.8000n
 maxout= 126.8691n    at=   1.1205n
             from=   1.0000n    to=   3.8000n

          ***** job concluded

   *** monte carlo  index =         4961 ***

 minout=   3.5134n    at=   1.1205n
             from=   1.0000n    to=   3.8000n
 maxout=   3.5134n    at=   1.3205n
             from=   1.0000n    to=   3.8000n

          ***** job concluded

   *** monte carlo  index =         4962 ***

 minout=   1.2045u    at=   1.1205n
             from=   1.0000n    to=   3.8000n
 maxout=   1.2045u    at=   1.3205n
             from=   1.0000n    to=   3.8000n

          ***** job concluded

   *** monte carlo  index =         4963 ***

 minout=   8.3077u    at=   1.1205n
             from=   1.0000n    to=   3.8000n
 maxout=   8.3077u    at=   1.3205n
             from=   1.0000n    to=   3.8000n

          ***** job concluded

   *** monte carlo  index =         4964 ***

 minout= 387.3040n    at=   1.3205n
             from=   1.0000n    to=   3.8000n
 maxout= 387.3040n    at=   1.1205n
             from=   1.0000n    to=   3.8000n

          ***** job concluded

   *** monte carlo  index =         4965 ***

 minout=  18.9965n    at=   1.3205n
             from=   1.0000n    to=   3.8000n
 maxout=  18.9965n    at=   1.1205n
             from=   1.0000n    to=   3.8000n

          ***** job concluded

   *** monte carlo  index =         4966 ***

 minout= 112.4812n    at=   1.1205n
             from=   1.0000n    to=   3.8000n
 maxout= 112.4812n    at=   1.3205n
             from=   1.0000n    to=   3.8000n

          ***** job concluded

   *** monte carlo  index =         4967 ***

 minout=  32.2669n    at=   1.3205n
             from=   1.0000n    to=   3.8000n
 maxout=  32.2669n    at=   1.1205n
             from=   1.0000n    to=   3.8000n

          ***** job concluded

   *** monte carlo  index =         4968 ***

 minout=  83.1273n    at=   1.3205n
             from=   1.0000n    to=   3.8000n
 maxout=  83.1273n    at=   1.1205n
             from=   1.0000n    to=   3.8000n

          ***** job concluded

   *** monte carlo  index =         4969 ***

 minout= 101.3674n    at=   1.1205n
             from=   1.0000n    to=   3.8000n
 maxout= 101.3674n    at=   1.3205n
             from=   1.0000n    to=   3.8000n

          ***** job concluded

   *** monte carlo  index =         4970 ***

 minout= 274.8137n    at=   1.1205n
             from=   1.0000n    to=   3.8000n
 maxout= 274.8137n    at=   1.3205n
             from=   1.0000n    to=   3.8000n

          ***** job concluded

   *** monte carlo  index =         4971 ***

 minout= 370.9092n    at=   1.3205n
             from=   1.0000n    to=   3.8000n
 maxout= 370.9092n    at=   1.1205n
             from=   1.0000n    to=   3.8000n

          ***** job concluded

   *** monte carlo  index =         4972 ***

 minout=  26.2982u    at=   1.7205n
             from=   1.0000n    to=   3.8000n
 maxout=  26.2982u    at=   3.1205n
             from=   1.0000n    to=   3.8000n

          ***** job concluded

   *** monte carlo  index =         4973 ***

 minout= 106.9570n    at=   1.3205n
             from=   1.0000n    to=   3.8000n
 maxout= 106.9570n    at=   1.1205n
             from=   1.0000n    to=   3.8000n

          ***** job concluded

   *** monte carlo  index =         4974 ***

 minout= 217.0119n    at=   1.3205n
             from=   1.0000n    to=   3.8000n
 maxout= 217.0119n    at=   1.1205n
             from=   1.0000n    to=   3.8000n

          ***** job concluded

   *** monte carlo  index =         4975 ***

 minout=  17.4900n    at=   1.1205n
             from=   1.0000n    to=   3.8000n
 maxout=  17.4900n    at=   1.3205n
             from=   1.0000n    to=   3.8000n

          ***** job concluded

   *** monte carlo  index =         4976 ***

 minout=  64.5970n    at=   1.3205n
             from=   1.0000n    to=   3.8000n
 maxout=  64.5970n    at=   1.1205n
             from=   1.0000n    to=   3.8000n

          ***** job concluded

   *** monte carlo  index =         4977 ***

 minout=   1.3326u    at=   1.3205n
             from=   1.0000n    to=   3.8000n
 maxout=   1.3326u    at=   1.1205n
             from=   1.0000n    to=   3.8000n

          ***** job concluded

   *** monte carlo  index =         4978 ***

 minout=  50.5940n    at=   1.3205n
             from=   1.0000n    to=   3.8000n
 maxout=  50.5940n    at=   1.1205n
             from=   1.0000n    to=   3.8000n

          ***** job concluded

   *** monte carlo  index =         4979 ***

 minout=  21.1037n    at=   1.3205n
             from=   1.0000n    to=   3.8000n
 maxout=  21.1037n    at=   1.1205n
             from=   1.0000n    to=   3.8000n

          ***** job concluded

   *** monte carlo  index =         4980 ***

 minout= 137.6955n    at=   1.1205n
             from=   1.0000n    to=   3.8000n
 maxout= 137.6955n    at=   1.3205n
             from=   1.0000n    to=   3.8000n

          ***** job concluded

   *** monte carlo  index =         4981 ***

 minout=   2.7355n    at=   1.3205n
             from=   1.0000n    to=   3.8000n
 maxout=   2.7355n    at=   1.1205n
             from=   1.0000n    to=   3.8000n

          ***** job concluded

   *** monte carlo  index =         4982 ***

 minout=  47.6397n    at=   1.3205n
             from=   1.0000n    to=   3.8000n
 maxout=  47.6397n    at=   1.1205n
             from=   1.0000n    to=   3.8000n

          ***** job concluded

   *** monte carlo  index =         4983 ***

 minout=   1.7817u    at=   1.3205n
             from=   1.0000n    to=   3.8000n
 maxout=   1.7817u    at=   1.1205n
             from=   1.0000n    to=   3.8000n

          ***** job concluded

   *** monte carlo  index =         4984 ***

 minout=  51.4593n    at=   1.1205n
             from=   1.0000n    to=   3.8000n
 maxout=  51.4593n    at=   1.3205n
             from=   1.0000n    to=   3.8000n

          ***** job concluded

   *** monte carlo  index =         4985 ***

 minout= 253.2362n    at=   1.1205n
             from=   1.0000n    to=   3.8000n
 maxout= 253.2362n    at=   1.3205n
             from=   1.0000n    to=   3.8000n

          ***** job concluded

   *** monte carlo  index =         4986 ***

 minout=   4.7535n    at=   1.1205n
             from=   1.0000n    to=   3.8000n
 maxout=   4.7535n    at=   1.3205n
             from=   1.0000n    to=   3.8000n

          ***** job concluded

   *** monte carlo  index =         4987 ***

 minout=  50.1951n    at=   1.3205n
             from=   1.0000n    to=   3.8000n
 maxout=  50.1951n    at=   1.1205n
             from=   1.0000n    to=   3.8000n

          ***** job concluded

   *** monte carlo  index =         4988 ***

 minout= 543.4854n    at=   1.1205n
             from=   1.0000n    to=   3.8000n
 maxout= 543.4854n    at=   1.3205n
             from=   1.0000n    to=   3.8000n

          ***** job concluded

   *** monte carlo  index =         4989 ***

 minout= 497.0503n    at=   1.1205n
             from=   1.0000n    to=   3.8000n
 maxout= 497.0503n    at=   1.3205n
             from=   1.0000n    to=   3.8000n

          ***** job concluded

   *** monte carlo  index =         4990 ***

 minout= 269.5279n    at=   1.1205n
             from=   1.0000n    to=   3.8000n
 maxout= 269.5279n    at=   1.3205n
             from=   1.0000n    to=   3.8000n

          ***** job concluded

   *** monte carlo  index =         4991 ***

 minout=  19.5283u    at=   1.1205n
             from=   1.0000n    to=   3.8000n
 maxout=  19.5283u    at=   1.3205n
             from=   1.0000n    to=   3.8000n

          ***** job concluded

   *** monte carlo  index =         4992 ***

 minout=   8.5585n    at=   1.1205n
             from=   1.0000n    to=   3.8000n
 maxout=   8.5585n    at=   1.3205n
             from=   1.0000n    to=   3.8000n

          ***** job concluded

   *** monte carlo  index =         4993 ***

 minout=  14.5585u    at=   3.8000n
             from=   1.0000n    to=   3.8000n
 maxout=  14.5585u    at=   3.5205n
             from=   1.0000n    to=   3.8000n

          ***** job concluded

   *** monte carlo  index =         4994 ***

 minout= 562.3687n    at=   1.3205n
             from=   1.0000n    to=   3.8000n
 maxout= 562.3687n    at=   1.1205n
             from=   1.0000n    to=   3.8000n

          ***** job concluded

   *** monte carlo  index =         4995 ***

 minout=  39.0432n    at=   1.3205n
             from=   1.0000n    to=   3.8000n
 maxout=  39.0432n    at=   1.1205n
             from=   1.0000n    to=   3.8000n

          ***** job concluded

   *** monte carlo  index =         4996 ***

 minout= 786.0064n    at=   1.1205n
             from=   1.0000n    to=   3.8000n
 maxout= 786.0064n    at=   1.3205n
             from=   1.0000n    to=   3.8000n

          ***** job concluded

   *** monte carlo  index =         4997 ***

 minout= 159.7479n    at=   1.1205n
             from=   1.0000n    to=   3.8000n
 maxout= 159.7479n    at=   1.3205n
             from=   1.0000n    to=   3.8000n

          ***** job concluded

   *** monte carlo  index =         4998 ***

 minout=  12.5649u    at=   1.1205n
             from=   1.0000n    to=   3.8000n
 maxout=  12.5649u    at=   1.3205n
             from=   1.0000n    to=   3.8000n

          ***** job concluded

   *** monte carlo  index =         4999 ***

 minout= 388.7875n    at=   1.1205n
             from=   1.0000n    to=   3.8000n
 maxout= 388.7875n    at=   1.3205n
             from=   1.0000n    to=   3.8000n

          ***** job concluded

   *** monte carlo  index =         5000 ***

 minout=  21.0592n    at=   1.3205n
             from=   1.0000n    to=   3.8000n
 maxout=  21.0592n    at=   1.1205n
             from=   1.0000n    to=   3.8000n
 

 ****** Monte Carlo Statistics ******
  Available sampling count:  5000


    meas_variable = minout
   mean  =    4.8724u  varian =    4.3224n
   sigma =   65.7450u  avgdev =    8.0847u
   max   =    3.9219m  min    =    1.4242n
   1-sigma =   65.7450u  median =  134.4247n


    meas_variable = maxout
   mean  =    4.8724u  varian =    4.3224n
   sigma =   65.7450u  avgdev =    8.0847u
   max   =    3.9219m  min    =    1.4242n
   1-sigma =   65.7450u  median =  134.4247n



          ***** job concluded
 ******  
 xor v8

 ****** job statistics summary tnom=  25.000 temp=  25.000 ******
  
 ******  Machine Information  ******
 CPU:
 model name	: AMD Ryzen 5 3600 6-Core Processor
 cpu MHz	: 2195.161
 CPU(s)		: 12
  
 OS:
 Linux version 5.15.0-79-generic (buildd@lcy02-amd64-014) (gcc (Ubuntu 9.4.0-1ubuntu1~20.04.1) 9.4.0, GNU ld (GNU Binutils for Ubuntu) 2.34) #86~20.04.2-Ubuntu SMP Mon Jul 17 23:27:17 UTC 2023

 System loadavg : 0.48 0.22 0.13 2/709 1396013


  ******  PrimeSim HSPICE Threads Information  ******

  Command Line Threads Count :     1
  Available CPU Count        :    12
  Actual Threads Count       :     1


  ******  Circuit Statistics  ******
  # nodes       =       9 # elements   =      12
  # resistors   =       0 # capacitors =       0 # inductors   =       0
  # mutual_inds =       0 # vccs       =       0 # vcvs        =       0
  # cccs        =       0 # ccvs       =       0 # volt_srcs   =       6
  # curr_srcs   =       0 # diodes     =       0 # bjts        =       0
  # jfets       =       0 # mosfets    =       6 # U elements  =       0
  # T elements  =       0 # W elements =       0 # B elements  =       0
  # S elements  =       0 # P elements =       0 # va device   =       0
  # vector_srcs =       0 # N elements =       0


  ******  Runtime Statistics (seconds)  ******

  analysis           time    # points   tot. iter  conv.iter
  op point           0.90           1       10065
  transient          1.72     2005000      250000      125000 rev=         0
  readin             0.00
  errchk             0.02
  setup              0.00
  output             0.09


           peak memory used        449.39 megabytes
           total cpu time            6.84 seconds
           total elapsed time        6.88 seconds
           job started at     20:12:15 08/28/2023
           job ended   at     20:12:22 08/28/2023

>info:         ***** hspice job concluded
           job total runtime         6.88 seconds


 lic: Release hspice token(s) 
 lic: total license checkout elapse time:        0.02(s)
